
     RDKit          

 20 21  0  0  0  0  0  0  0  0999 V2000
    0.0000    0.0000    0.0000 C   0  0  0  0  0  0  0  0  0  0  0  0
    0.0000    0.0000    0.0000 C   0  0  0  0  0  0  0  0  0  0  0  0
    0.0000    0.0000    0.0000 C   0  0  0  0  0  0  0  0  0  0  0  0
    0.0000    0.0000    0.0000 C   0  0  0  0  0  0  0  0  0  0  0  0
    0.0000    0.0000    0.0000 C   0  0  0  0  0  0  0  0  0  0  0  0
    0.0000    0.0000    0.0000 C   0  0  0  0  0  0  0  0  0  0  0  0
    0.0000    0.0000    0.0000 C   0  0  0  0  0  0  0  0  0  0  0  0
    0.0000    0.0000    0.0000 C   0  0  0  0  0  0  0  0  0  0  0  0
    0.0000    0.0000    0.0000 N   0  0  0  0  0  0  0  0  0  0  0  0
    0.0000    0.0000    0.0000 C   0  0  0  0  0  0  0  0  0  0  0  0
    0.0000    0.0000    0.0000 N   0  0  0  0  0  0  0  0  0  0  0  0
    0.0000    0.0000    0.0000 N   0  0  0  0  0  0  0  0  0  0  0  0
    0.0000    0.0000    0.0000 C   0  0  0  0  0  0  0  0  0  0  0  0
    0.0000    0.0000    0.0000 N   0  0  0  0  0  0  0  0  0  0  0  0
    0.0000    0.0000    0.0000 C   0  0  0  0  0  0  0  0  0  0  0  0
    0.0000    0.0000    0.0000 C   0  0  0  0  0  0  0  0  0  0  0  0
    0.0000    0.0000    0.0000 C   0  0  0  0  0  0  0  0  0  0  0  0
    0.0000    0.0000    0.0000 C   0  0  0  0  0  0  0  0  0  0  0  0
    0.0000    0.0000    0.0000 C   0  0  0  0  0  0  0  0  0  0  0  0
    0.0000    0.0000    0.0000 O   0  0  0  0  0  0  0  0  0  0  0  0
  1  2  1  0
  2  3  1  0
  3  4  2  0
  4  5  1  0
  5  6  1  0
  6  7  1  0
  7  8  2  0
  8  9  1  0
  9 10  2  0
 10 11  1  0
 10 12  1  0
 12 13  2  0
 13 14  1  0
  5 15  2  0
 15 16  1  0
 16 17  1  0
 17 18  1  0
 16 19  2  0
 19 20  1  0
 19  3  1  0
 13  7  1  0
M  END
>  <pIC50>  (1) 
6.92

>  <ChEMBL_ID>  (1) 
CHEMBL25817

>  <document_journal>  (1) 
J. Med. Chem.

>  <bao_endpoint>  (1) 
BAO_0000190

>  <potential_duplicate>  (1) 
False

>  <uo_units>  (1) 
UO_0000065

>  <canonical_smiles>  (1) 
CCc1cc(Cc2cnc(N)nc2N)cc(CC)c1O

>  <parent_molecule_chembl_id>  (1) 
CHEMBL25817

>  <assay_type>  (1) 
B

>  <src_id>  (1) 
1

>  <ligand_efficiency>  (1) 
{u'le': u'0.47', u'bei': u'25.41', u'sei': u'7.06', u'lle': u'3.68'}

>  <standard_flag>  (1) 
True

>  <molecule_chembl_id>  (1) 
CHEMBL25817

>  <target_organism>  (1) 
Homo sapiens

>  <standard_units>  (1) 
nM

>  <record_id>  (1) 
33106

>  <document_chembl_id>  (1) 
CHEMBL1124217

>  <bao_format>  (1) 
BAO_0000357

>  <data_validity_description>  (1) 
None

>  <activity_id>  (1) 
72103

>  <standard_type>  (1) 
IC50

>  <target_chembl_id>  (1) 
CHEMBL202

>  <data_validity_comment>  (1) 
None

>  <published_value>  (1) 
1.2E-7

>  <document_year>  (1) 
1988

>  <target_pref_name>  (1) 
Dihydrofolate reductase

>  <assay_chembl_id>  (1) 
CHEMBL879983

>  <standard_relation>  (1) 
=

>  <assay_description>  (1) 
Inhibition of Neisseria gonorrhoeae Dihydrofolate reductase(DHFR)

>  <published_relation>  (1) 
=

>  <standard_value>  (1) 
120

>  <qudt_units>  (1) 
http://www.openphacts.org/units/Nanomolar

>  <target_tax_id>  (1) 
9606

>  <bao_label>  (1) 
single protein format

>  <published_units>  (1) 
M

>  <pchembl_value>  (1) 
6.92

>  <published_type>  (1) 
I50

>  <activity_comment>  (1) 
None

$$$$

     RDKit          

 24 25  0  0  0  0  0  0  0  0999 V2000
    0.0000    0.0000    0.0000 C   0  0  0  0  0  0  0  0  0  0  0  0
    0.0000    0.0000    0.0000 C   0  0  0  0  0  0  0  0  0  0  0  0
    0.0000    0.0000    0.0000 C   0  0  0  0  0  0  0  0  0  0  0  0
    0.0000    0.0000    0.0000 C   0  0  0  0  0  0  0  0  0  0  0  0
    0.0000    0.0000    0.0000 C   0  0  0  0  0  0  0  0  0  0  0  0
    0.0000    0.0000    0.0000 C   0  0  0  0  0  0  0  0  0  0  0  0
    0.0000    0.0000    0.0000 C   0  0  0  0  0  0  0  0  0  0  0  0
    0.0000    0.0000    0.0000 C   0  0  0  0  0  0  0  0  0  0  0  0
    0.0000    0.0000    0.0000 C   0  0  0  0  0  0  0  0  0  0  0  0
    0.0000    0.0000    0.0000 C   0  0  0  0  0  0  0  0  0  0  0  0
    0.0000    0.0000    0.0000 N   0  0  0  0  0  0  0  0  0  0  0  0
    0.0000    0.0000    0.0000 C   0  0  0  0  0  0  0  0  0  0  0  0
    0.0000    0.0000    0.0000 N   0  0  0  0  0  0  0  0  0  0  0  0
    0.0000    0.0000    0.0000 N   0  0  0  0  0  0  0  0  0  0  0  0
    0.0000    0.0000    0.0000 C   0  0  0  0  0  0  0  0  0  0  0  0
    0.0000    0.0000    0.0000 N   0  0  0  0  0  0  0  0  0  0  0  0
    0.0000    0.0000    0.0000 C   0  0  0  0  0  0  0  0  0  0  0  0
    0.0000    0.0000    0.0000 C   0  0  0  0  0  0  0  0  0  0  0  0
    0.0000    0.0000    0.0000 C   0  0  0  0  0  0  0  0  0  0  0  0
    0.0000    0.0000    0.0000 O   0  0  0  0  0  0  0  0  0  0  0  0
    0.0000    0.0000    0.0000 C   0  0  0  0  0  0  0  0  0  0  0  0
    0.0000    0.0000    0.0000 C   0  0  0  0  0  0  0  0  0  0  0  0
    0.0000    0.0000    0.0000 C   0  0  0  0  0  0  0  0  0  0  0  0
    0.0000    0.0000    0.0000 C   0  0  0  0  0  0  0  0  0  0  0  0
  1  2  1  0
  2  3  1  0
  2  4  1  0
  2  5  1  0
  5  6  2  0
  6  7  1  0
  7  8  1  0
  8  9  1  0
  9 10  2  0
 10 11  1  0
 11 12  2  0
 12 13  1  0
 12 14  1  0
 14 15  2  0
 15 16  1  0
  7 17  2  0
 17 18  1  0
 18 19  2  0
 19 20  1  0
 18 21  1  0
 21 22  1  0
 21 23  1  0
 21 24  1  0
 19  5  1  0
 15  9  1  0
M  END
>  <pIC50>  (2) 
7.22

>  <ChEMBL_ID>  (2) 
CHEMBL277176

>  <document_journal>  (2) 
J. Med. Chem.

>  <bao_endpoint>  (2) 
BAO_0000190

>  <potential_duplicate>  (2) 
False

>  <uo_units>  (2) 
UO_0000065

>  <canonical_smiles>  (2) 
CC(C)(C)c1cc(Cc2cnc(N)nc2N)cc(c1O)C(C)(C)C

>  <parent_molecule_chembl_id>  (2) 
CHEMBL277176

>  <assay_type>  (2) 
B

>  <src_id>  (2) 
1

>  <ligand_efficiency>  (2) 
{u'le': u'0.41', u'bei': u'21.97', u'sei': u'7.36', u'lle': u'3.06'}

>  <standard_flag>  (2) 
True

>  <molecule_chembl_id>  (2) 
CHEMBL277176

>  <target_organism>  (2) 
Homo sapiens

>  <standard_units>  (2) 
nM

>  <record_id>  (2) 
33104

>  <document_chembl_id>  (2) 
CHEMBL1124217

>  <bao_format>  (2) 
BAO_0000357

>  <data_validity_description>  (2) 
None

>  <activity_id>  (2) 
73098

>  <standard_type>  (2) 
IC50

>  <target_chembl_id>  (2) 
CHEMBL202

>  <data_validity_comment>  (2) 
None

>  <published_value>  (2) 
6.1E-8

>  <document_year>  (2) 
1988

>  <target_pref_name>  (2) 
Dihydrofolate reductase

>  <assay_chembl_id>  (2) 
CHEMBL879983

>  <standard_relation>  (2) 
=

>  <assay_description>  (2) 
Inhibition of Neisseria gonorrhoeae Dihydrofolate reductase(DHFR)

>  <published_relation>  (2) 
=

>  <standard_value>  (2) 
61

>  <qudt_units>  (2) 
http://www.openphacts.org/units/Nanomolar

>  <target_tax_id>  (2) 
9606

>  <bao_label>  (2) 
single protein format

>  <published_units>  (2) 
M

>  <pchembl_value>  (2) 
7.22

>  <published_type>  (2) 
I50

>  <activity_comment>  (2) 
None

$$$$

     RDKit          

 22 23  0  0  0  0  0  0  0  0999 V2000
    0.0000    0.0000    0.0000 C   0  0  0  0  0  0  0  0  0  0  0  0
    0.0000    0.0000    0.0000 C   0  0  0  0  0  0  0  0  0  0  0  0
    0.0000    0.0000    0.0000 C   0  0  0  0  0  0  0  0  0  0  0  0
    0.0000    0.0000    0.0000 C   0  0  0  0  0  0  0  0  0  0  0  0
    0.0000    0.0000    0.0000 C   0  0  0  0  0  0  0  0  0  0  0  0
    0.0000    0.0000    0.0000 C   0  0  0  0  0  0  0  0  0  0  0  0
    0.0000    0.0000    0.0000 C   0  0  0  0  0  0  0  0  0  0  0  0
    0.0000    0.0000    0.0000 C   0  0  0  0  0  0  0  0  0  0  0  0
    0.0000    0.0000    0.0000 C   0  0  0  0  0  0  0  0  0  0  0  0
    0.0000    0.0000    0.0000 N   0  0  0  0  0  0  0  0  0  0  0  0
    0.0000    0.0000    0.0000 C   0  0  0  0  0  0  0  0  0  0  0  0
    0.0000    0.0000    0.0000 N   0  0  0  0  0  0  0  0  0  0  0  0
    0.0000    0.0000    0.0000 N   0  0  0  0  0  0  0  0  0  0  0  0
    0.0000    0.0000    0.0000 C   0  0  0  0  0  0  0  0  0  0  0  0
    0.0000    0.0000    0.0000 N   0  0  0  0  0  0  0  0  0  0  0  0
    0.0000    0.0000    0.0000 C   0  0  0  0  0  0  0  0  0  0  0  0
    0.0000    0.0000    0.0000 C   0  0  0  0  0  0  0  0  0  0  0  0
    0.0000    0.0000    0.0000 C   0  0  0  0  0  0  0  0  0  0  0  0
    0.0000    0.0000    0.0000 C   0  0  0  0  0  0  0  0  0  0  0  0
    0.0000    0.0000    0.0000 C   0  0  0  0  0  0  0  0  0  0  0  0
    0.0000    0.0000    0.0000 O   0  0  0  0  0  0  0  0  0  0  0  0
    0.0000    0.0000    0.0000 C   0  0  0  0  0  0  0  0  0  0  0  0
  1  2  1  0
  2  3  1  0
  3  4  1  0
  4  5  2  0
  5  6  1  0
  6  7  1  0
  7  8  1  0
  8  9  2  0
  9 10  1  0
 10 11  2  0
 11 12  1  0
 11 13  1  0
 13 14  2  0
 14 15  1  0
  6 16  2  0
 16 17  1  0
 17 18  1  0
 18 19  1  0
 17 20  2  0
 20 21  1  0
 21 22  1  0
 20  4  1  0
 14  8  1  0
M  END
>  <pIC50>  (3) 
7.36

>  <ChEMBL_ID>  (3) 
CHEMBL279455

>  <document_journal>  (3) 
J. Med. Chem.

>  <bao_endpoint>  (3) 
BAO_0000190

>  <potential_duplicate>  (3) 
False

>  <uo_units>  (3) 
UO_0000065

>  <canonical_smiles>  (3) 
CCCc1cc(Cc2cnc(N)nc2N)cc(CC)c1OC

>  <parent_molecule_chembl_id>  (3) 
CHEMBL279455

>  <assay_type>  (3) 
B

>  <src_id>  (3) 
1

>  <ligand_efficiency>  (3) 
{u'le': u'0.46', u'bei': u'24.49', u'sei': u'8.45', u'lle': u'3.44'}

>  <standard_flag>  (3) 
True

>  <molecule_chembl_id>  (3) 
CHEMBL279455

>  <target_organism>  (3) 
Homo sapiens

>  <standard_units>  (3) 
nM

>  <record_id>  (3) 
33112

>  <document_chembl_id>  (3) 
CHEMBL1124217

>  <bao_format>  (3) 
BAO_0000357

>  <data_validity_description>  (3) 
None

>  <activity_id>  (3) 
73111

>  <standard_type>  (3) 
IC50

>  <target_chembl_id>  (3) 
CHEMBL202

>  <data_validity_comment>  (3) 
None

>  <published_value>  (3) 
4.4E-8

>  <document_year>  (3) 
1988

>  <target_pref_name>  (3) 
Dihydrofolate reductase

>  <assay_chembl_id>  (3) 
CHEMBL879983

>  <standard_relation>  (3) 
=

>  <assay_description>  (3) 
Inhibition of Neisseria gonorrhoeae Dihydrofolate reductase(DHFR)

>  <published_relation>  (3) 
=

>  <standard_value>  (3) 
44

>  <qudt_units>  (3) 
http://www.openphacts.org/units/Nanomolar

>  <target_tax_id>  (3) 
9606

>  <bao_label>  (3) 
single protein format

>  <published_units>  (3) 
M

>  <pchembl_value>  (3) 
7.36

>  <published_type>  (3) 
I50

>  <activity_comment>  (3) 
None

$$$$

     RDKit          

 22 23  0  0  0  0  0  0  0  0999 V2000
    0.0000    0.0000    0.0000 C   0  0  0  0  0  0  0  0  0  0  0  0
    0.0000    0.0000    0.0000 O   0  0  0  0  0  0  0  0  0  0  0  0
    0.0000    0.0000    0.0000 C   0  0  0  0  0  0  0  0  0  0  0  0
    0.0000    0.0000    0.0000 C   0  0  0  0  0  0  0  0  0  0  0  0
    0.0000    0.0000    0.0000 C   0  0  0  0  0  0  0  0  0  0  0  0
    0.0000    0.0000    0.0000 C   0  0  0  0  0  0  0  0  0  0  0  0
    0.0000    0.0000    0.0000 C   0  0  0  0  0  0  0  0  0  0  0  0
    0.0000    0.0000    0.0000 C   0  0  0  0  0  0  0  0  0  0  0  0
    0.0000    0.0000    0.0000 N   0  0  0  0  0  0  0  0  0  0  0  0
    0.0000    0.0000    0.0000 C   0  0  0  0  0  0  0  0  0  0  0  0
    0.0000    0.0000    0.0000 N   0  0  0  0  0  0  0  0  0  0  0  0
    0.0000    0.0000    0.0000 N   0  0  0  0  0  0  0  0  0  0  0  0
    0.0000    0.0000    0.0000 C   0  0  0  0  0  0  0  0  0  0  0  0
    0.0000    0.0000    0.0000 N   0  0  0  0  0  0  0  0  0  0  0  0
    0.0000    0.0000    0.0000 C   0  0  0  0  0  0  0  0  0  0  0  0
    0.0000    0.0000    0.0000 C   0  0  0  0  0  0  0  0  0  0  0  0
    0.0000    0.0000    0.0000 C   0  0  0  0  0  0  0  0  0  0  0  0
    0.0000    0.0000    0.0000 C   0  0  0  0  0  0  0  0  0  0  0  0
    0.0000    0.0000    0.0000 C   0  0  0  0  0  0  0  0  0  0  0  0
    0.0000    0.0000    0.0000 C   0  0  0  0  0  0  0  0  0  0  0  0
    0.0000    0.0000    0.0000 O   0  0  0  0  0  0  0  0  0  0  0  0
    0.0000    0.0000    0.0000 C   0  0  0  0  0  0  0  0  0  0  0  0
  1  2  1  0
  2  3  1  0
  3  4  2  0
  4  5  1  0
  5  6  1  0
  6  7  1  0
  7  8  2  0
  8  9  1  0
  9 10  2  0
 10 11  1  0
 10 12  1  0
 12 13  2  0
 13 14  1  0
  5 15  2  0
 15 16  1  0
 16 17  1  0
 17 18  2  0
 18 19  1  0
 16 20  2  0
 20 21  1  0
 21 22  1  0
 20  3  1  0
 13  7  1  0
M  END
>  <pIC50>  (4) 
7.03

>  <ChEMBL_ID>  (4) 
CHEMBL23338

>  <document_journal>  (4) 
J. Med. Chem.

>  <bao_endpoint>  (4) 
BAO_0000190

>  <potential_duplicate>  (4) 
False

>  <uo_units>  (4) 
UO_0000065

>  <canonical_smiles>  (4) 
COc1cc(Cc2cnc(N)nc2N)cc(\C=C\C)c1OC

>  <parent_molecule_chembl_id>  (4) 
CHEMBL23338

>  <assay_type>  (4) 
B

>  <src_id>  (4) 
1

>  <ligand_efficiency>  (4) 
{u'le': u'0.44', u'bei': u'23.41', u'sei': u'7.3', u'lle': u'4.52'}

>  <standard_flag>  (4) 
True

>  <molecule_chembl_id>  (4) 
CHEMBL23338

>  <target_organism>  (4) 
Homo sapiens

>  <standard_units>  (4) 
nM

>  <record_id>  (4) 
33120

>  <document_chembl_id>  (4) 
CHEMBL1124217

>  <bao_format>  (4) 
BAO_0000357

>  <data_validity_description>  (4) 
None

>  <activity_id>  (4) 
75210

>  <standard_type>  (4) 
IC50

>  <target_chembl_id>  (4) 
CHEMBL202

>  <data_validity_comment>  (4) 
None

>  <published_value>  (4) 
9.3E-8

>  <document_year>  (4) 
1988

>  <target_pref_name>  (4) 
Dihydrofolate reductase

>  <assay_chembl_id>  (4) 
CHEMBL879983

>  <standard_relation>  (4) 
=

>  <assay_description>  (4) 
Inhibition of Neisseria gonorrhoeae Dihydrofolate reductase(DHFR)

>  <published_relation>  (4) 
=

>  <standard_value>  (4) 
93

>  <qudt_units>  (4) 
http://www.openphacts.org/units/Nanomolar

>  <target_tax_id>  (4) 
9606

>  <bao_label>  (4) 
single protein format

>  <published_units>  (4) 
M

>  <pchembl_value>  (4) 
7.03

>  <published_type>  (4) 
I50

>  <activity_comment>  (4) 
None

$$$$

     RDKit          

 32 34  0  0  0  0  0  0  0  0999 V2000
    0.0000    0.0000    0.0000 C   0  0  0  0  0  0  0  0  0  0  0  0
    0.0000    0.0000    0.0000 N   0  0  0  0  0  0  0  0  0  0  0  0
    0.0000    0.0000    0.0000 C   0  0  0  0  0  0  0  0  0  0  0  0
    0.0000    0.0000    0.0000 C   0  0  0  0  0  0  0  0  0  0  0  0
    0.0000    0.0000    0.0000 C   0  0  0  0  0  0  0  0  0  0  0  0
    0.0000    0.0000    0.0000 N   0  0  0  0  0  0  0  0  0  0  0  0
    0.0000    0.0000    0.0000 C   0  0  0  0  0  0  0  0  0  0  0  0
    0.0000    0.0000    0.0000 N   0  0  0  0  0  0  0  0  0  0  0  0
    0.0000    0.0000    0.0000 C   0  0  0  0  0  0  0  0  0  0  0  0
    0.0000    0.0000    0.0000 N   0  0  0  0  0  0  0  0  0  0  0  0
    0.0000    0.0000    0.0000 N   0  0  0  0  0  0  0  0  0  0  0  0
    0.0000    0.0000    0.0000 C   0  0  0  0  0  0  0  0  0  0  0  0
    0.0000    0.0000    0.0000 N   0  0  0  0  0  0  0  0  0  0  0  0
    0.0000    0.0000    0.0000 C   0  0  0  0  0  0  0  0  0  0  0  0
    0.0000    0.0000    0.0000 N   0  0  0  0  0  0  0  0  0  0  0  0
    0.0000    0.0000    0.0000 C   0  0  0  0  0  0  0  0  0  0  0  0
    0.0000    0.0000    0.0000 C   0  0  0  0  0  0  0  0  0  0  0  0
    0.0000    0.0000    0.0000 C   0  0  0  0  0  0  0  0  0  0  0  0
    0.0000    0.0000    0.0000 C   0  0  0  0  0  0  0  0  0  0  0  0
    0.0000    0.0000    0.0000 C   0  0  0  0  0  0  0  0  0  0  0  0
    0.0000    0.0000    0.0000 C   0  0  0  0  0  0  0  0  0  0  0  0
    0.0000    0.0000    0.0000 C   0  0  0  0  0  0  0  0  0  0  0  0
    0.0000    0.0000    0.0000 O   0  0  0  0  0  0  0  0  0  0  0  0
    0.0000    0.0000    0.0000 N   0  0  0  0  0  0  0  0  0  0  0  0
    0.0000    0.0000    0.0000 C   0  0  0  0  0  0  0  0  0  0  0  0
    0.0000    0.0000    0.0000 C   0  0  0  0  0  0  0  0  0  0  0  0
    0.0000    0.0000    0.0000 C   0  0  0  0  0  0  0  0  0  0  0  0
    0.0000    0.0000    0.0000 C   0  0  0  0  0  0  0  0  0  0  0  0
    0.0000    0.0000    0.0000 N   0  0  0  0  0  0  0  0  0  0  0  0
    0.0000    0.0000    0.0000 C   0  0  0  0  0  0  0  0  0  0  0  0
    0.0000    0.0000    0.0000 O   0  0  0  0  0  0  0  0  0  0  0  0
    0.0000    0.0000    0.0000 O   0  0  0  0  0  0  0  0  0  0  0  0
  1  2  1  0
  2  3  1  0
  3  4  1  0
  4  5  2  0
  5  6  1  0
  6  7  2  0
  7  8  1  0
  8  9  2  0
  9 10  1  0
  9 11  1  0
 11 12  2  0
 12 13  1  0
 12 14  1  0
 14 15  2  0
  2 16  1  0
 16 17  2  0
 17 18  1  0
 18 19  2  0
 19 20  1  0
 20 21  2  0
 19 22  1  0
 22 23  2  0
 22 24  1  0
 24 25  1  0
 25 26  1  0
 26 27  1  0
 27 28  1  0
 28 29  1  0
 25 30  1  0
 30 31  2  0
 30 32  1  0
 15  4  1  0
 14  7  1  0
 21 16  1  0
M  END
>  <pIC50>  (5) 
8.13333333333

>  <ChEMBL_ID>  (5) 
CHEMBL36083

>  <document_journal>  (5) 
J. Med. Chem.

>  <bao_endpoint>  (5) 
BAO_0000190

>  <potential_duplicate>  (5) 
False

>  <uo_units>  (5) 
UO_0000065

>  <canonical_smiles>  (5) 
CN(Cc1cnc2nc(N)nc(N)c2n1)c3ccc(cc3)C(=O)NC(CCCN)C(=O)O

>  <parent_molecule_chembl_id>  (5) 
CHEMBL36083

>  <assay_type>  (5) 
B

>  <src_id>  (5) 
1

>  <ligand_efficiency>  (5) 
{u'le': u'0.37', u'bei': u'19.57', u'sei': u'4.32', u'lle': u'11.2'}

>  <standard_flag>  (5) 
True

>  <molecule_chembl_id>  (5) 
CHEMBL36083

>  <target_organism>  (5) 
Homo sapiens

>  <standard_units>  (5) 
nM

>  <record_id>  (5) 
153242

>  <document_chembl_id>  (5) 
CHEMBL1129353

>  <bao_format>  (5) 
BAO_0000219

>  <data_validity_description>  (5) 
None

>  <activity_id>  (5) 
75776

>  <standard_type>  (5) 
IC50

>  <target_chembl_id>  (5) 
CHEMBL202

>  <data_validity_comment>  (5) 
None

>  <published_value>  (5) 
2.5

>  <document_year>  (5) 
1996

>  <target_pref_name>  (5) 
Dihydrofolate reductase

>  <assay_chembl_id>  (5) 
CHEMBL668278

>  <standard_relation>  (5) 
=

>  <assay_description>  (5) 
Inhibitory concentration against dihydrofolate reductase enzyme (DHFR) enzyme isolated from CCRF-CEM human leukemia cells.

>  <published_relation>  (5) 
=

>  <standard_value>  (5) 
2.5

>  <qudt_units>  (5) 
http://www.openphacts.org/units/Nanomolar

>  <target_tax_id>  (5) 
9606

>  <bao_label>  (5) 
cell-based format

>  <published_units>  (5) 
nM

>  <pchembl_value>  (5) 
8.6

>  <published_type>  (5) 
IC50

>  <activity_comment>  (5) 
None

$$$$

     RDKit          

 21 22  0  0  0  0  0  0  0  0999 V2000
    0.0000    0.0000    0.0000 C   0  0  0  0  0  0  0  0  0  0  0  0
    0.0000    0.0000    0.0000 O   0  0  0  0  0  0  0  0  0  0  0  0
    0.0000    0.0000    0.0000 C   0  0  0  0  0  0  0  0  0  0  0  0
    0.0000    0.0000    0.0000 C   0  0  0  0  0  0  0  0  0  0  0  0
    0.0000    0.0000    0.0000 C   0  0  0  0  0  0  0  0  0  0  0  0
    0.0000    0.0000    0.0000 C   0  0  0  0  0  0  0  0  0  0  0  0
    0.0000    0.0000    0.0000 C   0  0  0  0  0  0  0  0  0  0  0  0
    0.0000    0.0000    0.0000 C   0  0  0  0  0  0  0  0  0  0  0  0
    0.0000    0.0000    0.0000 N   0  0  0  0  0  0  0  0  0  0  0  0
    0.0000    0.0000    0.0000 C   0  0  0  0  0  0  0  0  0  0  0  0
    0.0000    0.0000    0.0000 N   0  0  0  0  0  0  0  0  0  0  0  0
    0.0000    0.0000    0.0000 N   0  0  0  0  0  0  0  0  0  0  0  0
    0.0000    0.0000    0.0000 C   0  0  0  0  0  0  0  0  0  0  0  0
    0.0000    0.0000    0.0000 N   0  0  0  0  0  0  0  0  0  0  0  0
    0.0000    0.0000    0.0000 C   0  0  0  0  0  0  0  0  0  0  0  0
    0.0000    0.0000    0.0000 C   0  0  0  0  0  0  0  0  0  0  0  0
    0.0000    0.0000    0.0000 O   0  0  0  0  0  0  0  0  0  0  0  0
    0.0000    0.0000    0.0000 C   0  0  0  0  0  0  0  0  0  0  0  0
    0.0000    0.0000    0.0000 C   0  0  0  0  0  0  0  0  0  0  0  0
    0.0000    0.0000    0.0000 O   0  0  0  0  0  0  0  0  0  0  0  0
    0.0000    0.0000    0.0000 C   0  0  0  0  0  0  0  0  0  0  0  0
  1  2  1  0
  2  3  1  0
  3  4  2  0
  4  5  1  0
  5  6  1  0
  6  7  1  0
  7  8  2  0
  8  9  1  0
  9 10  2  0
 10 11  1  0
 10 12  1  0
 12 13  2  0
 13 14  1  0
  5 15  2  0
 15 16  1  0
 16 17  1  0
 17 18  1  0
 16 19  2  0
 19 20  1  0
 20 21  1  0
 19  3  1  0
 13  7  1  0
M  END
>  <pIC50>  (6) 
6.056

>  <ChEMBL_ID>  (6) 
CHEMBL22

>  <document_journal>  (6) 
J. Med. Chem.

>  <bao_endpoint>  (6) 
BAO_0000190

>  <potential_duplicate>  (6) 
True

>  <uo_units>  (6) 
UO_0000065

>  <canonical_smiles>  (6) 
COc1cc(Cc2cnc(N)nc2N)cc(OC)c1OC

>  <parent_molecule_chembl_id>  (6) 
CHEMBL22

>  <assay_type>  (6) 
B

>  <src_id>  (6) 
1

>  <ligand_efficiency>  (6) 
{u'le': u'0.41', u'bei': u'21.86', u'sei': u'6.02', u'lle': u'4.81'}

>  <standard_flag>  (6) 
True

>  <molecule_chembl_id>  (6) 
CHEMBL22

>  <target_organism>  (6) 
Homo sapiens

>  <standard_units>  (6) 
nM

>  <record_id>  (6) 
33101

>  <document_chembl_id>  (6) 
CHEMBL1124217

>  <bao_format>  (6) 
BAO_0000357

>  <data_validity_description>  (6) 
None

>  <activity_id>  (6) 
79720

>  <standard_type>  (6) 
IC50

>  <target_chembl_id>  (6) 
CHEMBL202

>  <data_validity_comment>  (6) 
None

>  <published_value>  (6) 
4.5E-7

>  <document_year>  (6) 
1988

>  <target_pref_name>  (6) 
Dihydrofolate reductase

>  <assay_chembl_id>  (6) 
CHEMBL879983

>  <standard_relation>  (6) 
=

>  <assay_description>  (6) 
Inhibition of Neisseria gonorrhoeae Dihydrofolate reductase(DHFR)

>  <published_relation>  (6) 
=

>  <standard_value>  (6) 
450

>  <qudt_units>  (6) 
http://www.openphacts.org/units/Nanomolar

>  <target_tax_id>  (6) 
9606

>  <bao_label>  (6) 
single protein format

>  <published_units>  (6) 
M

>  <pchembl_value>  (6) 
6.35

>  <published_type>  (6) 
I50

>  <activity_comment>  (6) 
None

$$$$

     RDKit          

 33 35  0  0  0  0  0  0  0  0999 V2000
    0.0000    0.0000    0.0000 C   0  0  0  0  0  0  0  0  0  0  0  0
    0.0000    0.0000    0.0000 N   0  0  0  0  0  0  0  0  0  0  0  0
    0.0000    0.0000    0.0000 C   0  0  0  0  0  0  0  0  0  0  0  0
    0.0000    0.0000    0.0000 C   0  0  0  0  0  0  0  0  0  0  0  0
    0.0000    0.0000    0.0000 C   0  0  0  0  0  0  0  0  0  0  0  0
    0.0000    0.0000    0.0000 N   0  0  0  0  0  0  0  0  0  0  0  0
    0.0000    0.0000    0.0000 C   0  0  0  0  0  0  0  0  0  0  0  0
    0.0000    0.0000    0.0000 N   0  0  0  0  0  0  0  0  0  0  0  0
    0.0000    0.0000    0.0000 C   0  0  0  0  0  0  0  0  0  0  0  0
    0.0000    0.0000    0.0000 N   0  0  0  0  0  0  0  0  0  0  0  0
    0.0000    0.0000    0.0000 N   0  0  0  0  0  0  0  0  0  0  0  0
    0.0000    0.0000    0.0000 C   0  0  0  0  0  0  0  0  0  0  0  0
    0.0000    0.0000    0.0000 N   0  0  0  0  0  0  0  0  0  0  0  0
    0.0000    0.0000    0.0000 C   0  0  0  0  0  0  0  0  0  0  0  0
    0.0000    0.0000    0.0000 N   0  0  0  0  0  0  0  0  0  0  0  0
    0.0000    0.0000    0.0000 C   0  0  0  0  0  0  0  0  0  0  0  0
    0.0000    0.0000    0.0000 C   0  0  0  0  0  0  0  0  0  0  0  0
    0.0000    0.0000    0.0000 C   0  0  0  0  0  0  0  0  0  0  0  0
    0.0000    0.0000    0.0000 C   0  0  0  0  0  0  0  0  0  0  0  0
    0.0000    0.0000    0.0000 C   0  0  0  0  0  0  0  0  0  0  0  0
    0.0000    0.0000    0.0000 C   0  0  0  0  0  0  0  0  0  0  0  0
    0.0000    0.0000    0.0000 C   0  0  0  0  0  0  0  0  0  0  0  0
    0.0000    0.0000    0.0000 O   0  0  0  0  0  0  0  0  0  0  0  0
    0.0000    0.0000    0.0000 N   0  0  0  0  0  0  0  0  0  0  0  0
    0.0000    0.0000    0.0000 C   0  0  0  0  0  0  0  0  0  0  0  0
    0.0000    0.0000    0.0000 C   0  0  0  0  0  0  0  0  0  0  0  0
    0.0000    0.0000    0.0000 C   0  0  0  0  0  0  0  0  0  0  0  0
    0.0000    0.0000    0.0000 C   0  0  0  0  0  0  0  0  0  0  0  0
    0.0000    0.0000    0.0000 O   0  0  0  0  0  0  0  0  0  0  0  0
    0.0000    0.0000    0.0000 O   0  0  0  0  0  0  0  0  0  0  0  0
    0.0000    0.0000    0.0000 C   0  0  0  0  0  0  0  0  0  0  0  0
    0.0000    0.0000    0.0000 O   0  0  0  0  0  0  0  0  0  0  0  0
    0.0000    0.0000    0.0000 O   0  0  0  0  0  0  0  0  0  0  0  0
  1  2  1  0
  2  3  1  0
  3  4  1  0
  4  5  2  0
  5  6  1  0
  6  7  2  0
  7  8  1  0
  8  9  2  0
  9 10  1  0
  9 11  1  0
 11 12  2  0
 12 13  1  0
 12 14  1  0
 14 15  2  0
  2 16  1  0
 16 17  2  0
 17 18  1  0
 18 19  2  0
 19 20  1  0
 20 21  2  0
 19 22  1  0
 22 23  2  0
 22 24  1  0
 24 25  1  0
 25 26  1  0
 26 27  1  0
 27 28  1  0
 28 29  2  0
 28 30  1  0
 25 31  1  0
 31 32  2  0
 31 33  1  0
 15  4  1  0
 14  7  1  0
 21 16  1  0
M  END
>  <pIC50>  (7) 
8.02389830508

>  <ChEMBL_ID>  (7) 
CHEMBL34259

>  <document_journal>  (7) 
J. Med. Chem.

>  <bao_endpoint>  (7) 
BAO_0000190

>  <potential_duplicate>  (7) 
False

>  <uo_units>  (7) 
UO_0000065

>  <canonical_smiles>  (7) 
CN(Cc1cnc2nc(N)nc(N)c2n1)c3ccc(cc3)C(=O)N[C@@H](CCC(=O)O)C(=O)O

>  <parent_molecule_chembl_id>  (7) 
CHEMBL34259

>  <assay_type>  (7) 
B

>  <src_id>  (7) 
1

>  <ligand_efficiency>  (7) 
{u'le': u'0.38', u'bei': u'19.99', u'sei': u'4.32', u'lle': u'8.98'}

>  <standard_flag>  (7) 
True

>  <molecule_chembl_id>  (7) 
CHEMBL34259

>  <target_organism>  (7) 
Homo sapiens

>  <standard_units>  (7) 
nM

>  <record_id>  (7) 
153238

>  <document_chembl_id>  (7) 
CHEMBL1129353

>  <bao_format>  (7) 
BAO_0000219

>  <data_validity_description>  (7) 
None

>  <activity_id>  (7) 
81456

>  <standard_type>  (7) 
IC50

>  <target_chembl_id>  (7) 
CHEMBL202

>  <data_validity_comment>  (7) 
None

>  <published_value>  (7) 
0.82

>  <document_year>  (7) 
1996

>  <target_pref_name>  (7) 
Dihydrofolate reductase

>  <assay_chembl_id>  (7) 
CHEMBL668277

>  <standard_relation>  (7) 
=

>  <assay_description>  (7) 
Inhibitory concentration against dihydrofolate reductase (DHFR) enzyme isolated from CCRF-CEM human leukemia cells.

>  <published_relation>  (7) 
=

>  <standard_value>  (7) 
0.82

>  <qudt_units>  (7) 
http://www.openphacts.org/units/Nanomolar

>  <target_tax_id>  (7) 
9606

>  <bao_label>  (7) 
cell-based format

>  <published_units>  (7) 
nM

>  <pchembl_value>  (7) 
9.09

>  <published_type>  (7) 
IC50

>  <activity_comment>  (7) 
None

$$$$

     RDKit          

 31 33  0  0  0  0  0  0  0  0999 V2000
    0.0000    0.0000    0.0000 O   0  0  0  0  0  0  0  0  0  0  0  0
    0.0000    0.0000    0.0000 C   0  0  0  0  0  0  0  0  0  0  0  0
    0.0000    0.0000    0.0000 N   0  0  0  0  0  0  0  0  0  0  0  0
    0.0000    0.0000    0.0000 C   0  0  0  0  0  0  0  0  0  0  0  0
    0.0000    0.0000    0.0000 C   0  0  0  0  0  0  0  0  0  0  0  0
    0.0000    0.0000    0.0000 C   0  0  0  0  0  0  0  0  0  0  0  0
    0.0000    0.0000    0.0000 C   0  0  0  0  0  0  0  0  0  0  0  0
    0.0000    0.0000    0.0000 C   0  0  0  0  0  0  0  0  0  0  0  0
    0.0000    0.0000    0.0000 N   0  0  0  0  0  0  0  0  0  0  0  0
    0.0000    0.0000    0.0000 N   0  0  0  0  0  0  0  0  0  0  0  0
    0.0000    0.0000    0.0000 N   0  0  0  0  0  0  0  0  0  0  0  0
    0.0000    0.0000    0.0000 C   0  0  0  0  0  0  0  0  0  0  0  0
    0.0000    0.0000    0.0000 C   0  0  0  0  0  0  0  0  0  0  0  0
    0.0000    0.0000    0.0000 N   0  0  0  0  0  0  0  0  0  0  0  0
    0.0000    0.0000    0.0000 C   0  0  0  0  0  0  0  0  0  0  0  0
    0.0000    0.0000    0.0000 C   0  0  0  0  0  0  0  0  0  0  0  0
    0.0000    0.0000    0.0000 C   0  0  0  0  0  0  0  0  0  0  0  0
    0.0000    0.0000    0.0000 C   0  0  0  0  0  0  0  0  0  0  0  0
    0.0000    0.0000    0.0000 C   0  0  0  0  0  0  0  0  0  0  0  0
    0.0000    0.0000    0.0000 C   0  0  0  0  0  0  0  0  0  0  0  0
    0.0000    0.0000    0.0000 O   0  0  0  0  0  0  0  0  0  0  0  0
    0.0000    0.0000    0.0000 N   0  0  0  0  0  0  0  0  0  0  0  0
    0.0000    0.0000    0.0000 C   0  0  0  0  0  0  0  0  0  0  0  0
    0.0000    0.0000    0.0000 C   0  0  0  0  0  0  0  0  0  0  0  0
    0.0000    0.0000    0.0000 C   0  0  0  0  0  0  0  0  0  0  0  0
    0.0000    0.0000    0.0000 C   0  0  0  0  0  0  0  0  0  0  0  0
    0.0000    0.0000    0.0000 O   0  0  0  0  0  0  0  0  0  0  0  0
    0.0000    0.0000    0.0000 O   0  0  0  0  0  0  0  0  0  0  0  0
    0.0000    0.0000    0.0000 C   0  0  0  0  0  0  0  0  0  0  0  0
    0.0000    0.0000    0.0000 O   0  0  0  0  0  0  0  0  0  0  0  0
    0.0000    0.0000    0.0000 O   0  0  0  0  0  0  0  0  0  0  0  0
  1  2  2  0
  2  3  1  0
  2  4  1  0
  4  5  1  0
  6  4  2  0
  5  7  1  0
  5  8  2  0
  9  6  1  0
  6 10  1  0
  7 11  1  0
  8  9  1  0
 10 12  2  0
 11 13  1  0
 14 12  1  0
 12  3  1  0
 13 15  2  0
 16 13  1  0
 15 17  1  0
 18 16  2  0
 17 19  2  0
 19 18  1  0
 19 20  1  0
 20 21  2  0
 20 22  1  0
 22 23  1  0
 23 24  1  0
 23 25  1  0
 24 26  1  0
 25 27  2  0
 25 28  1  0
 26 29  1  0
 29 30  2  0
 29 31  1  0
M  END
>  <pIC50>  (8) 
5.0

>  <ChEMBL_ID>  (8) 
CHEMBL61708

>  <document_journal>  (8) 
J. Med. Chem.

>  <bao_endpoint>  (8) 
BAO_0000190

>  <potential_duplicate>  (8) 
False

>  <uo_units>  (8) 
UO_0000065

>  <canonical_smiles>  (8) 
Nc1nc(O)c2c(CNc3ccc(cc3)C(=O)N[C@@H](CCC(=O)O)C(=O)O)c[nH]c2n1

>  <parent_molecule_chembl_id>  (8) 
CHEMBL61708

>  <assay_type>  (8) 
B

>  <src_id>  (8) 
1

>  <ligand_efficiency>  (8) 
{u'le': u'0.22', u'bei': u'11.67', u'sei': u'2.46', u'lle': u'4.12'}

>  <standard_flag>  (8) 
True

>  <molecule_chembl_id>  (8) 
CHEMBL61708

>  <target_organism>  (8) 
Homo sapiens

>  <standard_units>  (8) 
nM

>  <record_id>  (8) 
105563

>  <document_chembl_id>  (8) 
CHEMBL1134503

>  <bao_format>  (8) 
BAO_0000357

>  <data_validity_description>  (8) 
None

>  <activity_id>  (8) 
83623

>  <standard_type>  (8) 
IC50

>  <target_chembl_id>  (8) 
CHEMBL202

>  <data_validity_comment>  (8) 
None

>  <published_value>  (8) 
10

>  <document_year>  (8) 
2001

>  <target_pref_name>  (8) 
Dihydrofolate reductase

>  <assay_chembl_id>  (8) 
CHEMBL668441

>  <standard_relation>  (8) 
=

>  <assay_description>  (8) 
Inhibitory activity against human dihydrofolate reductase

>  <published_relation>  (8) 
=

>  <standard_value>  (8) 
10000

>  <qudt_units>  (8) 
http://www.openphacts.org/units/Nanomolar

>  <target_tax_id>  (8) 
9606

>  <bao_label>  (8) 
single protein format

>  <published_units>  (8) 
uM

>  <pchembl_value>  (8) 
5

>  <published_type>  (8) 
IC50

>  <activity_comment>  (8) 
None

$$$$

     RDKit          

 22 23  0  0  0  0  0  0  0  0999 V2000
    0.0000    0.0000    0.0000 C   0  0  0  0  0  0  0  0  0  0  0  0
    0.0000    0.0000    0.0000 O   0  0  0  0  0  0  0  0  0  0  0  0
    0.0000    0.0000    0.0000 C   0  0  0  0  0  0  0  0  0  0  0  0
    0.0000    0.0000    0.0000 C   0  0  0  0  0  0  0  0  0  0  0  0
    0.0000    0.0000    0.0000 C   0  0  0  0  0  0  0  0  0  0  0  0
    0.0000    0.0000    0.0000 C   0  0  0  0  0  0  0  0  0  0  0  0
    0.0000    0.0000    0.0000 C   0  0  0  0  0  0  0  0  0  0  0  0
    0.0000    0.0000    0.0000 C   0  0  0  0  0  0  0  0  0  0  0  0
    0.0000    0.0000    0.0000 N   0  0  0  0  0  0  0  0  0  0  0  0
    0.0000    0.0000    0.0000 C   0  0  0  0  0  0  0  0  0  0  0  0
    0.0000    0.0000    0.0000 N   0  0  0  0  0  0  0  0  0  0  0  0
    0.0000    0.0000    0.0000 N   0  0  0  0  0  0  0  0  0  0  0  0
    0.0000    0.0000    0.0000 C   0  0  0  0  0  0  0  0  0  0  0  0
    0.0000    0.0000    0.0000 N   0  0  0  0  0  0  0  0  0  0  0  0
    0.0000    0.0000    0.0000 C   0  0  0  0  0  0  0  0  0  0  0  0
    0.0000    0.0000    0.0000 C   0  0  0  0  0  0  0  0  0  0  0  0
    0.0000    0.0000    0.0000 C   0  0  0  0  0  0  0  0  0  0  0  0
    0.0000    0.0000    0.0000 C   0  0  0  0  0  0  0  0  0  0  0  0
    0.0000    0.0000    0.0000 C   0  0  0  0  0  0  0  0  0  0  0  0
    0.0000    0.0000    0.0000 C   0  0  0  0  0  0  0  0  0  0  0  0
    0.0000    0.0000    0.0000 O   0  0  0  0  0  0  0  0  0  0  0  0
    0.0000    0.0000    0.0000 C   0  0  0  0  0  0  0  0  0  0  0  0
  1  2  1  0
  2  3  1  0
  3  4  2  0
  4  5  1  0
  5  6  1  0
  6  7  1  0
  7  8  2  0
  8  9  1  0
  9 10  2  0
 10 11  1  0
 10 12  1  0
 12 13  2  0
 13 14  1  0
  5 15  2  0
 15 16  1  0
 16 17  1  0
 17 18  1  0
 18 19  2  0
 16 20  2  0
 20 21  1  0
 21 22  1  0
 20  3  1  0
 13  7  1  0
M  END
>  <pIC50>  (9) 
6.96

>  <ChEMBL_ID>  (9) 
CHEMBL282022

>  <document_journal>  (9) 
J. Med. Chem.

>  <bao_endpoint>  (9) 
BAO_0000190

>  <potential_duplicate>  (9) 
False

>  <uo_units>  (9) 
UO_0000065

>  <canonical_smiles>  (9) 
COc1cc(Cc2cnc(N)nc2N)cc(CC=C)c1OC

>  <parent_molecule_chembl_id>  (9) 
CHEMBL282022

>  <assay_type>  (9) 
B

>  <src_id>  (9) 
1

>  <ligand_efficiency>  (9) 
{u'le': u'0.43', u'bei': u'23.17', u'sei': u'7.23', u'lle': u'4.39'}

>  <standard_flag>  (9) 
True

>  <molecule_chembl_id>  (9) 
CHEMBL282022

>  <target_organism>  (9) 
Homo sapiens

>  <standard_units>  (9) 
nM

>  <record_id>  (9) 
33119

>  <document_chembl_id>  (9) 
CHEMBL1124217

>  <bao_format>  (9) 
BAO_0000357

>  <data_validity_description>  (9) 
None

>  <activity_id>  (9) 
84133

>  <standard_type>  (9) 
IC50

>  <target_chembl_id>  (9) 
CHEMBL202

>  <data_validity_comment>  (9) 
None

>  <published_value>  (9) 
1.1E-7

>  <document_year>  (9) 
1988

>  <target_pref_name>  (9) 
Dihydrofolate reductase

>  <assay_chembl_id>  (9) 
CHEMBL879983

>  <standard_relation>  (9) 
=

>  <assay_description>  (9) 
Inhibition of Neisseria gonorrhoeae Dihydrofolate reductase(DHFR)

>  <published_relation>  (9) 
=

>  <standard_value>  (9) 
110

>  <qudt_units>  (9) 
http://www.openphacts.org/units/Nanomolar

>  <target_tax_id>  (9) 
9606

>  <bao_label>  (9) 
single protein format

>  <published_units>  (9) 
M

>  <pchembl_value>  (9) 
6.96

>  <published_type>  (9) 
I50

>  <activity_comment>  (9) 
None

$$$$

     RDKit          

 31 33  0  0  0  0  0  0  0  0999 V2000
    0.0000    0.0000    0.0000 N   0  0  0  0  0  0  0  0  0  0  0  0
    0.0000    0.0000    0.0000 C   0  0  0  0  0  0  0  0  0  0  0  0
    0.0000    0.0000    0.0000 N   0  0  0  0  0  0  0  0  0  0  0  0
    0.0000    0.0000    0.0000 C   0  0  0  0  0  0  0  0  0  0  0  0
    0.0000    0.0000    0.0000 O   0  0  0  0  0  0  0  0  0  0  0  0
    0.0000    0.0000    0.0000 C   0  0  0  0  0  0  0  0  0  0  0  0
    0.0000    0.0000    0.0000 N   0  0  0  0  0  0  0  0  0  0  0  0
    0.0000    0.0000    0.0000 C   0  0  0  0  0  0  0  0  0  0  0  0
    0.0000    0.0000    0.0000 C   0  0  0  0  0  0  0  0  0  0  0  0
    0.0000    0.0000    0.0000 C   0  0  0  0  0  0  0  0  0  0  0  0
    0.0000    0.0000    0.0000 C   0  0  0  0  0  0  0  0  0  0  0  0
    0.0000    0.0000    0.0000 C   0  0  0  0  0  0  0  0  0  0  0  0
    0.0000    0.0000    0.0000 C   0  0  0  0  0  0  0  0  0  0  0  0
    0.0000    0.0000    0.0000 C   0  0  0  0  0  0  0  0  0  0  0  0
    0.0000    0.0000    0.0000 C   0  0  0  0  0  0  0  0  0  0  0  0
    0.0000    0.0000    0.0000 C   0  0  0  0  0  0  0  0  0  0  0  0
    0.0000    0.0000    0.0000 C   0  0  0  0  0  0  0  0  0  0  0  0
    0.0000    0.0000    0.0000 C   0  0  0  0  0  0  0  0  0  0  0  0
    0.0000    0.0000    0.0000 C   0  0  0  0  0  0  0  0  0  0  0  0
    0.0000    0.0000    0.0000 O   0  0  0  0  0  0  0  0  0  0  0  0
    0.0000    0.0000    0.0000 N   0  0  0  0  0  0  0  0  0  0  0  0
    0.0000    0.0000    0.0000 C   0  0  0  0  0  0  0  0  0  0  0  0
    0.0000    0.0000    0.0000 C   0  0  0  0  0  0  0  0  0  0  0  0
    0.0000    0.0000    0.0000 C   0  0  0  0  0  0  0  0  0  0  0  0
    0.0000    0.0000    0.0000 C   0  0  0  0  0  0  0  0  0  0  0  0
    0.0000    0.0000    0.0000 O   0  0  0  0  0  0  0  0  0  0  0  0
    0.0000    0.0000    0.0000 O   0  0  0  0  0  0  0  0  0  0  0  0
    0.0000    0.0000    0.0000 C   0  0  0  0  0  0  0  0  0  0  0  0
    0.0000    0.0000    0.0000 O   0  0  0  0  0  0  0  0  0  0  0  0
    0.0000    0.0000    0.0000 O   0  0  0  0  0  0  0  0  0  0  0  0
    0.0000    0.0000    0.0000 N   0  0  0  0  0  0  0  0  0  0  0  0
  1  2  2  0
  2  3  1  0
  3  4  1  0
  4  5  2  0
  6  1  1  0
  7  6  1  0
  6  8  2  0
  9  7  1  0
  4  8  1  0
  8 10  1  0
 10  9  2  0
 10 11  1  0
 11 12  1  0
 12 13  1  0
 13 14  2  0
 15 13  1  0
 14 16  1  0
 17 15  2  0
 16 18  2  0
 18 17  1  0
 18 19  1  0
 19 20  2  0
 19 21  1  0
 21 22  1  0
 22 23  1  0
 22 24  1  0
 23 25  1  0
 24 26  2  0
 24 27  1  0
 25 28  1  0
 28 29  2  0
 28 30  1  0
 31  2  1  0
M  END
>  <pIC50>  (10) 
5.33533333333

>  <ChEMBL_ID>  (10) 
CHEMBL225072

>  <document_journal>  (10) 
J. Med. Chem.

>  <bao_endpoint>  (10) 
BAO_0000190

>  <potential_duplicate>  (10) 
False

>  <uo_units>  (10) 
UO_0000065

>  <canonical_smiles>  (10) 
NC1=NC(=O)c2c(CCc3ccc(cc3)C(=O)N[C@@H](CCC(=O)O)C(=O)O)c[nH]c2N1

>  <parent_molecule_chembl_id>  (10) 
CHEMBL225072

>  <assay_type>  (10) 
B

>  <src_id>  (10) 
1

>  <ligand_efficiency>  (10) 
{u'le': u'0.25', u'bei': u'13.19', u'sei': u'3.02', u'lle': u'4.5'}

>  <standard_flag>  (10) 
True

>  <molecule_chembl_id>  (10) 
CHEMBL225072

>  <target_organism>  (10) 
Homo sapiens

>  <standard_units>  (10) 
nM

>  <record_id>  (10) 
105562

>  <document_chembl_id>  (10) 
CHEMBL1134503

>  <bao_format>  (10) 
BAO_0000357

>  <data_validity_description>  (10) 
None

>  <activity_id>  (10) 
87717

>  <standard_type>  (10) 
IC50

>  <target_chembl_id>  (10) 
CHEMBL202

>  <data_validity_comment>  (10) 
None

>  <published_value>  (10) 
2.3

>  <document_year>  (10) 
2001

>  <target_pref_name>  (10) 
Dihydrofolate reductase

>  <assay_chembl_id>  (10) 
CHEMBL668441

>  <standard_relation>  (10) 
=

>  <assay_description>  (10) 
Inhibitory activity against human dihydrofolate reductase

>  <published_relation>  (10) 
=

>  <standard_value>  (10) 
2300

>  <qudt_units>  (10) 
http://www.openphacts.org/units/Nanomolar

>  <target_tax_id>  (10) 
9606

>  <bao_label>  (10) 
single protein format

>  <published_units>  (10) 
uM

>  <pchembl_value>  (10) 
5.64

>  <published_type>  (10) 
IC50

>  <activity_comment>  (10) 
None

$$$$

     RDKit          

 35 37  0  0  0  0  0  0  0  0999 V2000
    0.0000    0.0000    0.0000 O   0  0  0  0  0  0  0  0  0  0  0  0
    0.0000    0.0000    0.0000 C   0  0  0  0  0  0  0  0  0  0  0  0
    0.0000    0.0000    0.0000 N   0  0  0  0  0  0  0  0  0  0  0  0
    0.0000    0.0000    0.0000 C   0  0  0  0  0  0  0  0  0  0  0  0
    0.0000    0.0000    0.0000 C   0  0  0  0  0  0  0  0  0  0  0  0
    0.0000    0.0000    0.0000 C   0  0  0  0  0  0  0  0  0  0  0  0
    0.0000    0.0000    0.0000 C   0  0  0  0  0  0  0  0  0  0  0  0
    0.0000    0.0000    0.0000 C   0  0  0  0  0  0  0  0  0  0  0  0
    0.0000    0.0000    0.0000 N   0  0  0  0  0  0  0  0  0  0  0  0
    0.0000    0.0000    0.0000 C   0  0  0  0  0  0  0  0  0  0  0  0
    0.0000    0.0000    0.0000 C   0  0  0  0  0  0  0  0  0  0  0  0
    0.0000    0.0000    0.0000 C   0  0  0  0  0  0  0  0  0  0  0  0
    0.0000    0.0000    0.0000 N   0  0  0  0  0  0  0  0  0  0  0  0
    0.0000    0.0000    0.0000 N   0  0  0  0  0  0  0  0  0  0  0  0
    0.0000    0.0000    0.0000 C   0  0  0  0  0  0  0  0  0  0  0  0
    0.0000    0.0000    0.0000 C   0  0  0  0  0  0  0  0  0  0  0  0
    0.0000    0.0000    0.0000 C   0  0  0  0  0  0  0  0  0  0  0  0
    0.0000    0.0000    0.0000 C   0  0  0  0  0  0  0  0  0  0  0  0
    0.0000    0.0000    0.0000 C   0  0  0  0  0  0  0  0  0  0  0  0
    0.0000    0.0000    0.0000 N   0  0  0  0  0  0  0  0  0  0  0  0
    0.0000    0.0000    0.0000 C   0  0  0  0  0  0  0  0  0  0  0  0
    0.0000    0.0000    0.0000 C   0  0  0  0  0  0  0  0  0  0  0  0
    0.0000    0.0000    0.0000 C   0  0  0  0  0  0  0  0  0  0  0  0
    0.0000    0.0000    0.0000 C   0  0  0  0  0  0  0  0  0  0  0  0
    0.0000    0.0000    0.0000 O   0  0  0  0  0  0  0  0  0  0  0  0
    0.0000    0.0000    0.0000 N   0  0  0  0  0  0  0  0  0  0  0  0
    0.0000    0.0000    0.0000 C   0  0  0  0  0  0  0  0  0  0  0  0
    0.0000    0.0000    0.0000 C   0  0  0  0  0  0  0  0  0  0  0  0
    0.0000    0.0000    0.0000 C   0  0  0  0  0  0  0  0  0  0  0  0
    0.0000    0.0000    0.0000 C   0  0  0  0  0  0  0  0  0  0  0  0
    0.0000    0.0000    0.0000 O   0  0  0  0  0  0  0  0  0  0  0  0
    0.0000    0.0000    0.0000 O   0  0  0  0  0  0  0  0  0  0  0  0
    0.0000    0.0000    0.0000 C   0  0  0  0  0  0  0  0  0  0  0  0
    0.0000    0.0000    0.0000 O   0  0  0  0  0  0  0  0  0  0  0  0
    0.0000    0.0000    0.0000 O   0  0  0  0  0  0  0  0  0  0  0  0
  1  2  2  0
  2  3  1  0
  2  4  1  0
  4  5  2  0
  6  4  1  0
  5  7  1  0
  8  6  2  0
  6  9  1  0
  7 10  1  0
  7 11  2  0
 11  8  1  0
  9 12  2  0
 10 13  1  0
 14 12  1  0
 12  3  1  0
 13 15  1  0
 13 16  1  0
 15 17  1  0
 16 18  2  0
 19 16  1  0
 17 20  3  0
 18 21  1  0
 22 19  2  0
 21 23  2  0
 23 22  1  0
 23 24  1  0
 24 25  2  0
 24 26  1  0
 26 27  1  0
 27 28  1  0
 27 29  1  0
 28 30  1  0
 29 31  2  0
 29 32  1  0
 30 33  1  0
 33 34  2  0
 33 35  1  0
M  END
>  <pIC50>  (11) 
6.34

>  <ChEMBL_ID>  (11) 
CHEMBL34918

>  <document_journal>  (11) 
J. Med. Chem.

>  <bao_endpoint>  (11) 
BAO_0000190

>  <potential_duplicate>  (11) 
False

>  <uo_units>  (11) 
UO_0000065

>  <canonical_smiles>  (11) 
Nc1nc(O)c2cc(CN(CC#N)c3ccc(cc3)C(=O)NC(CCC(=O)O)C(=O)O)ccc2n1

>  <parent_molecule_chembl_id>  (11) 
CHEMBL34918

>  <assay_type>  (11) 
B

>  <src_id>  (11) 
1

>  <ligand_efficiency>  (11) 
{u'le': u'0.25', u'bei': u'13.25', u'sei': u'3.13', u'lle': u'4.53'}

>  <standard_flag>  (11) 
True

>  <molecule_chembl_id>  (11) 
CHEMBL34918

>  <target_organism>  (11) 
Homo sapiens

>  <standard_units>  (11) 
nM

>  <record_id>  (11) 
305666

>  <document_chembl_id>  (11) 
CHEMBL1122470

>  <bao_format>  (11) 
BAO_0000357

>  <data_validity_description>  (11) 
None

>  <activity_id>  (11) 
90963

>  <standard_type>  (11) 
IC50

>  <target_chembl_id>  (11) 
CHEMBL202

>  <data_validity_comment>  (11) 
None

>  <published_value>  (11) 
4.6E-7

>  <document_year>  (11) 
1983

>  <target_pref_name>  (11) 
Dihydrofolate reductase

>  <assay_chembl_id>  (11) 
CHEMBL663135

>  <standard_relation>  (11) 
=

>  <assay_description>  (11) 
Concentration required for 50% inhibition against dihydrofolate reductase of Streptococcus faecium

>  <published_relation>  (11) 
=

>  <standard_value>  (11) 
460

>  <qudt_units>  (11) 
http://www.openphacts.org/units/Nanomolar

>  <target_tax_id>  (11) 
9606

>  <bao_label>  (11) 
single protein format

>  <published_units>  (11) 
M

>  <pchembl_value>  (11) 
6.34

>  <published_type>  (11) 
IC50

>  <activity_comment>  (11) 
None

$$$$

     RDKit          

 20 21  0  0  0  0  0  0  0  0999 V2000
    0.0000    0.0000    0.0000 C   0  0  0  0  0  0  0  0  0  0  0  0
    0.0000    0.0000    0.0000 C   0  0  0  0  0  0  0  0  0  0  0  0
    0.0000    0.0000    0.0000 C   0  0  0  0  0  0  0  0  0  0  0  0
    0.0000    0.0000    0.0000 C   0  0  0  0  0  0  0  0  0  0  0  0
    0.0000    0.0000    0.0000 C   0  0  0  0  0  0  0  0  0  0  0  0
    0.0000    0.0000    0.0000 C   0  0  0  0  0  0  0  0  0  0  0  0
    0.0000    0.0000    0.0000 C   0  0  0  0  0  0  0  0  0  0  0  0
    0.0000    0.0000    0.0000 C   0  0  0  0  0  0  0  0  0  0  0  0
    0.0000    0.0000    0.0000 N   0  0  0  0  0  0  0  0  0  0  0  0
    0.0000    0.0000    0.0000 C   0  0  0  0  0  0  0  0  0  0  0  0
    0.0000    0.0000    0.0000 N   0  0  0  0  0  0  0  0  0  0  0  0
    0.0000    0.0000    0.0000 N   0  0  0  0  0  0  0  0  0  0  0  0
    0.0000    0.0000    0.0000 C   0  0  0  0  0  0  0  0  0  0  0  0
    0.0000    0.0000    0.0000 N   0  0  0  0  0  0  0  0  0  0  0  0
    0.0000    0.0000    0.0000 C   0  0  0  0  0  0  0  0  0  0  0  0
    0.0000    0.0000    0.0000 C   0  0  0  0  0  0  0  0  0  0  0  0
    0.0000    0.0000    0.0000 C   0  0  0  0  0  0  0  0  0  0  0  0
    0.0000    0.0000    0.0000 C   0  0  0  0  0  0  0  0  0  0  0  0
    0.0000    0.0000    0.0000 O   0  0  0  0  0  0  0  0  0  0  0  0
    0.0000    0.0000    0.0000 C   0  0  0  0  0  0  0  0  0  0  0  0
  1  2  1  0
  2  3  1  0
  3  4  2  0
  4  5  1  0
  5  6  1  0
  6  7  1  0
  7  8  2  0
  8  9  1  0
  9 10  2  0
 10 11  1  0
 10 12  1  0
 12 13  2  0
 13 14  1  0
  5 15  2  0
 15 16  1  0
 16 17  1  0
 16 18  2  0
 18 19  1  0
 19 20  1  0
 18  3  1  0
 13  7  1  0
M  END
>  <pIC50>  (12) 
6.51

>  <ChEMBL_ID>  (12) 
CHEMBL23447

>  <document_journal>  (12) 
J. Med. Chem.

>  <bao_endpoint>  (12) 
BAO_0000190

>  <potential_duplicate>  (12) 
False

>  <uo_units>  (12) 
UO_0000065

>  <canonical_smiles>  (12) 
CCc1cc(Cc2cnc(N)nc2N)cc(C)c1OC

>  <parent_molecule_chembl_id>  (12) 
CHEMBL23447

>  <assay_type>  (12) 
B

>  <src_id>  (12) 
1

>  <ligand_efficiency>  (12) 
{u'le': u'0.44', u'bei': u'23.9', u'sei': u'7.48', u'lle': u'3.51'}

>  <standard_flag>  (12) 
True

>  <molecule_chembl_id>  (12) 
CHEMBL23447

>  <target_organism>  (12) 
Homo sapiens

>  <standard_units>  (12) 
nM

>  <record_id>  (12) 
33114

>  <document_chembl_id>  (12) 
CHEMBL1124217

>  <bao_format>  (12) 
BAO_0000357

>  <data_validity_description>  (12) 
None

>  <activity_id>  (12) 
92093

>  <standard_type>  (12) 
IC50

>  <target_chembl_id>  (12) 
CHEMBL202

>  <data_validity_comment>  (12) 
None

>  <published_value>  (12) 
3.1E-7

>  <document_year>  (12) 
1988

>  <target_pref_name>  (12) 
Dihydrofolate reductase

>  <assay_chembl_id>  (12) 
CHEMBL879983

>  <standard_relation>  (12) 
=

>  <assay_description>  (12) 
Inhibition of Neisseria gonorrhoeae Dihydrofolate reductase(DHFR)

>  <published_relation>  (12) 
=

>  <standard_value>  (12) 
310

>  <qudt_units>  (12) 
http://www.openphacts.org/units/Nanomolar

>  <target_tax_id>  (12) 
9606

>  <bao_label>  (12) 
single protein format

>  <published_units>  (12) 
M

>  <pchembl_value>  (12) 
6.51

>  <published_type>  (12) 
I50

>  <activity_comment>  (12) 
None

$$$$

     RDKit          

 22 23  0  0  0  0  0  0  0  0999 V2000
    0.0000    0.0000    0.0000 C   0  0  0  0  0  0  0  0  0  0  0  0
    0.0000    0.0000    0.0000 C   0  0  0  0  0  0  0  0  0  0  0  0
    0.0000    0.0000    0.0000 C   0  0  0  0  0  0  0  0  0  0  0  0
    0.0000    0.0000    0.0000 C   0  0  0  0  0  0  0  0  0  0  0  0
    0.0000    0.0000    0.0000 C   0  0  0  0  0  0  0  0  0  0  0  0
    0.0000    0.0000    0.0000 C   0  0  0  0  0  0  0  0  0  0  0  0
    0.0000    0.0000    0.0000 C   0  0  0  0  0  0  0  0  0  0  0  0
    0.0000    0.0000    0.0000 C   0  0  0  0  0  0  0  0  0  0  0  0
    0.0000    0.0000    0.0000 C   0  0  0  0  0  0  0  0  0  0  0  0
    0.0000    0.0000    0.0000 N   0  0  0  0  0  0  0  0  0  0  0  0
    0.0000    0.0000    0.0000 C   0  0  0  0  0  0  0  0  0  0  0  0
    0.0000    0.0000    0.0000 N   0  0  0  0  0  0  0  0  0  0  0  0
    0.0000    0.0000    0.0000 N   0  0  0  0  0  0  0  0  0  0  0  0
    0.0000    0.0000    0.0000 C   0  0  0  0  0  0  0  0  0  0  0  0
    0.0000    0.0000    0.0000 N   0  0  0  0  0  0  0  0  0  0  0  0
    0.0000    0.0000    0.0000 C   0  0  0  0  0  0  0  0  0  0  0  0
    0.0000    0.0000    0.0000 C   0  0  0  0  0  0  0  0  0  0  0  0
    0.0000    0.0000    0.0000 O   0  0  0  0  0  0  0  0  0  0  0  0
    0.0000    0.0000    0.0000 C   0  0  0  0  0  0  0  0  0  0  0  0
    0.0000    0.0000    0.0000 C   0  0  0  0  0  0  0  0  0  0  0  0
    0.0000    0.0000    0.0000 O   0  0  0  0  0  0  0  0  0  0  0  0
    0.0000    0.0000    0.0000 C   0  0  0  0  0  0  0  0  0  0  0  0
  1  2  1  0
  2  3  1  0
  3  4  1  0
  4  5  2  0
  5  6  1  0
  6  7  1  0
  7  8  1  0
  8  9  2  0
  9 10  1  0
 10 11  2  0
 11 12  1  0
 11 13  1  0
 13 14  2  0
 14 15  1  0
  6 16  2  0
 16 17  1  0
 17 18  1  0
 18 19  1  0
 17 20  2  0
 20 21  1  0
 21 22  1  0
 20  4  1  0
 14  8  1  0
M  END
>  <pIC50>  (13) 
7.17

>  <ChEMBL_ID>  (13) 
CHEMBL278345

>  <document_journal>  (13) 
J. Med. Chem.

>  <bao_endpoint>  (13) 
BAO_0000190

>  <potential_duplicate>  (13) 
False

>  <uo_units>  (13) 
UO_0000065

>  <canonical_smiles>  (13) 
CCCc1cc(Cc2cnc(N)nc2N)cc(OC)c1OC

>  <parent_molecule_chembl_id>  (13) 
CHEMBL278345

>  <assay_type>  (13) 
B

>  <src_id>  (13) 
1

>  <ligand_efficiency>  (13) 
{u'le': u'0.45', u'bei': u'23.73', u'sei': u'7.45', u'lle': u'4.21'}

>  <standard_flag>  (13) 
True

>  <molecule_chembl_id>  (13) 
CHEMBL278345

>  <target_organism>  (13) 
Homo sapiens

>  <standard_units>  (13) 
nM

>  <record_id>  (13) 
33121

>  <document_chembl_id>  (13) 
CHEMBL1124217

>  <bao_format>  (13) 
BAO_0000357

>  <data_validity_description>  (13) 
None

>  <activity_id>  (13) 
93111

>  <standard_type>  (13) 
IC50

>  <target_chembl_id>  (13) 
CHEMBL202

>  <data_validity_comment>  (13) 
None

>  <published_value>  (13) 
6.7E-8

>  <document_year>  (13) 
1988

>  <target_pref_name>  (13) 
Dihydrofolate reductase

>  <assay_chembl_id>  (13) 
CHEMBL879983

>  <standard_relation>  (13) 
=

>  <assay_description>  (13) 
Inhibition of Neisseria gonorrhoeae Dihydrofolate reductase(DHFR)

>  <published_relation>  (13) 
=

>  <standard_value>  (13) 
67

>  <qudt_units>  (13) 
http://www.openphacts.org/units/Nanomolar

>  <target_tax_id>  (13) 
9606

>  <bao_label>  (13) 
single protein format

>  <published_units>  (13) 
M

>  <pchembl_value>  (13) 
7.17

>  <published_type>  (13) 
I50

>  <activity_comment>  (13) 
None

$$$$

     RDKit          

 34 36  0  0  0  0  0  0  0  0999 V2000
    0.0000    0.0000    0.0000 C   0  0  0  0  0  0  0  0  0  0  0  0
    0.0000    0.0000    0.0000 N   0  0  0  0  0  0  0  0  0  0  0  0
    0.0000    0.0000    0.0000 C   0  0  0  0  0  0  0  0  0  0  0  0
    0.0000    0.0000    0.0000 C   0  0  0  0  0  0  0  0  0  0  0  0
    0.0000    0.0000    0.0000 C   0  0  0  0  0  0  0  0  0  0  0  0
    0.0000    0.0000    0.0000 N   0  0  0  0  0  0  0  0  0  0  0  0
    0.0000    0.0000    0.0000 C   0  0  0  0  0  0  0  0  0  0  0  0
    0.0000    0.0000    0.0000 N   0  0  0  0  0  0  0  0  0  0  0  0
    0.0000    0.0000    0.0000 C   0  0  0  0  0  0  0  0  0  0  0  0
    0.0000    0.0000    0.0000 N   0  0  0  0  0  0  0  0  0  0  0  0
    0.0000    0.0000    0.0000 N   0  0  0  0  0  0  0  0  0  0  0  0
    0.0000    0.0000    0.0000 C   0  0  0  0  0  0  0  0  0  0  0  0
    0.0000    0.0000    0.0000 N   0  0  0  0  0  0  0  0  0  0  0  0
    0.0000    0.0000    0.0000 C   0  0  0  0  0  0  0  0  0  0  0  0
    0.0000    0.0000    0.0000 N   0  0  0  0  0  0  0  0  0  0  0  0
    0.0000    0.0000    0.0000 C   0  0  0  0  0  0  0  0  0  0  0  0
    0.0000    0.0000    0.0000 C   0  0  0  0  0  0  0  0  0  0  0  0
    0.0000    0.0000    0.0000 C   0  0  0  0  0  0  0  0  0  0  0  0
    0.0000    0.0000    0.0000 C   0  0  0  0  0  0  0  0  0  0  0  0
    0.0000    0.0000    0.0000 C   0  0  0  0  0  0  0  0  0  0  0  0
    0.0000    0.0000    0.0000 C   0  0  0  0  0  0  0  0  0  0  0  0
    0.0000    0.0000    0.0000 C   0  0  0  0  0  0  0  0  0  0  0  0
    0.0000    0.0000    0.0000 O   0  0  0  0  0  0  0  0  0  0  0  0
    0.0000    0.0000    0.0000 N   0  0  0  0  0  0  0  0  0  0  0  0
    0.0000    0.0000    0.0000 C   0  0  0  0  0  0  0  0  0  0  0  0
    0.0000    0.0000    0.0000 C   0  0  0  0  0  0  0  0  0  0  0  0
    0.0000    0.0000    0.0000 C   0  0  0  0  0  0  0  0  0  0  0  0
    0.0000    0.0000    0.0000 F   0  0  0  0  0  0  0  0  0  0  0  0
    0.0000    0.0000    0.0000 F   0  0  0  0  0  0  0  0  0  0  0  0
    0.0000    0.0000    0.0000 C   0  0  0  0  0  0  0  0  0  0  0  0
    0.0000    0.0000    0.0000 N   0  0  0  0  0  0  0  0  0  0  0  0
    0.0000    0.0000    0.0000 C   0  0  0  0  0  0  0  0  0  0  0  0
    0.0000    0.0000    0.0000 O   0  0  0  0  0  0  0  0  0  0  0  0
    0.0000    0.0000    0.0000 O   0  0  0  0  0  0  0  0  0  0  0  0
  1  2  1  0
  2  3  1  0
  3  4  1  0
  4  5  2  0
  5  6  1  0
  6  7  2  0
  7  8  1  0
  8  9  2  0
  9 10  1  0
  9 11  1  0
 11 12  2  0
 12 13  1  0
 12 14  1  0
 14 15  2  0
  2 16  1  0
 16 17  2  0
 17 18  1  0
 18 19  2  0
 19 20  1  0
 20 21  2  0
 19 22  1  0
 22 23  2  0
 22 24  1  0
 24 25  1  0
 25 26  1  0
 26 27  1  0
 27 28  1  0
 27 29  1  0
 27 30  1  0
 30 31  1  0
 25 32  1  0
 32 33  2  0
 32 34  1  0
 15  4  1  0
 14  7  1  0
 21 16  1  0
M  END
>  <pIC50>  (14) 
8.89

>  <ChEMBL_ID>  (14) 
CHEMBL83644

>  <document_journal>  (14) 
J. Med. Chem.

>  <bao_endpoint>  (14) 
BAO_0000190

>  <potential_duplicate>  (14) 
False

>  <uo_units>  (14) 
UO_0000065

>  <canonical_smiles>  (14) 
CN(Cc1cnc2nc(N)nc(N)c2n1)c3ccc(cc3)C(=O)NC(CC(F)(F)CN)C(=O)O

>  <parent_molecule_chembl_id>  (14) 
CHEMBL83644

>  <assay_type>  (14) 
B

>  <src_id>  (14) 
1

>  <ligand_efficiency>  (14) 
{u'le': u'0.36', u'bei': u'18.69', u'sei': u'4.46', u'lle': u'11.39'}

>  <standard_flag>  (14) 
True

>  <molecule_chembl_id>  (14) 
CHEMBL83644

>  <target_organism>  (14) 
Homo sapiens

>  <standard_units>  (14) 
nM

>  <record_id>  (14) 
153237

>  <document_chembl_id>  (14) 
CHEMBL1129353

>  <bao_format>  (14) 
BAO_0000219

>  <data_validity_description>  (14) 
None

>  <activity_id>  (14) 
93479

>  <standard_type>  (14) 
IC50

>  <target_chembl_id>  (14) 
CHEMBL202

>  <data_validity_comment>  (14) 
None

>  <published_value>  (14) 
1.3

>  <document_year>  (14) 
1996

>  <target_pref_name>  (14) 
Dihydrofolate reductase

>  <assay_chembl_id>  (14) 
CHEMBL668278

>  <standard_relation>  (14) 
=

>  <assay_description>  (14) 
Inhibitory concentration against dihydrofolate reductase enzyme (DHFR) enzyme isolated from CCRF-CEM human leukemia cells.

>  <published_relation>  (14) 
=

>  <standard_value>  (14) 
1.3

>  <qudt_units>  (14) 
http://www.openphacts.org/units/Nanomolar

>  <target_tax_id>  (14) 
9606

>  <bao_label>  (14) 
cell-based format

>  <published_units>  (14) 
nM

>  <pchembl_value>  (14) 
8.89

>  <published_type>  (14) 
IC50

>  <activity_comment>  (14) 
None

$$$$

     RDKit          

 27 29  0  0  0  0  0  0  0  0999 V2000
    0.0000    0.0000    0.0000 C   0  0  0  0  0  0  0  0  0  0  0  0
    0.0000    0.0000    0.0000 O   0  0  0  0  0  0  0  0  0  0  0  0
    0.0000    0.0000    0.0000 C   0  0  0  0  0  0  0  0  0  0  0  0
    0.0000    0.0000    0.0000 C   0  0  0  0  0  0  0  0  0  0  0  0
    0.0000    0.0000    0.0000 C   0  0  0  0  0  0  0  0  0  0  0  0
    0.0000    0.0000    0.0000 N   0  0  0  0  0  0  0  0  0  0  0  0
    0.0000    0.0000    0.0000 C   0  0  0  0  0  0  0  0  0  0  0  0
    0.0000    0.0000    0.0000 C   0  0  0  0  0  0  0  0  0  0  0  0
    0.0000    0.0000    0.0000 C   0  0  0  0  0  0  0  0  0  0  0  0
    0.0000    0.0000    0.0000 C   0  0  0  0  0  0  0  0  0  0  0  0
    0.0000    0.0000    0.0000 C   0  0  0  0  0  0  0  0  0  0  0  0
    0.0000    0.0000    0.0000 N   0  0  0  0  0  0  0  0  0  0  0  0
    0.0000    0.0000    0.0000 C   0  0  0  0  0  0  0  0  0  0  0  0
    0.0000    0.0000    0.0000 N   0  0  0  0  0  0  0  0  0  0  0  0
    0.0000    0.0000    0.0000 N   0  0  0  0  0  0  0  0  0  0  0  0
    0.0000    0.0000    0.0000 C   0  0  0  0  0  0  0  0  0  0  0  0
    0.0000    0.0000    0.0000 N   0  0  0  0  0  0  0  0  0  0  0  0
    0.0000    0.0000    0.0000 C   0  0  0  0  0  0  0  0  0  0  0  0
    0.0000    0.0000    0.0000 C   0  0  0  0  0  0  0  0  0  0  0  0
    0.0000    0.0000    0.0000 C   0  0  0  0  0  0  0  0  0  0  0  0
    0.0000    0.0000    0.0000 C   0  0  0  0  0  0  0  0  0  0  0  0
    0.0000    0.0000    0.0000 C   0  0  0  0  0  0  0  0  0  0  0  0
    0.0000    0.0000    0.0000 O   0  0  0  0  0  0  0  0  0  0  0  0
    0.0000    0.0000    0.0000 C   0  0  0  0  0  0  0  0  0  0  0  0
    0.0000    0.0000    0.0000 C   0  0  0  0  0  0  0  0  0  0  0  0
    0.0000    0.0000    0.0000 O   0  0  0  0  0  0  0  0  0  0  0  0
    0.0000    0.0000    0.0000 C   0  0  0  0  0  0  0  0  0  0  0  0
  1  2  1  0
  2  3  1  0
  3  4  2  0
  4  5  1  0
  5  6  1  0
  6  7  1  0
  7  8  1  0
  8  9  2  0
  9 10  1  0
 10 11  2  0
 11 12  1  0
 12 13  2  0
 13 14  1  0
 13 15  1  0
 15 16  2  0
 16 17  1  0
 16 18  1  0
 18 19  2  0
 19 20  1  0
  5 21  2  0
 21 22  1  0
 22 23  1  0
 23 24  1  0
 22 25  2  0
 25 26  1  0
 26 27  1  0
 25  3  1  0
 19  8  1  0
 18 11  1  0
M  END
>  <pIC50>  (15) 
7.87333333333

>  <ChEMBL_ID>  (15) 
CHEMBL119

>  <document_journal>  (15) 
J. Med. Chem.

>  <bao_endpoint>  (15) 
BAO_0000190

>  <potential_duplicate>  (15) 
False

>  <uo_units>  (15) 
UO_0000065

>  <canonical_smiles>  (15) 
COc1cc(NCc2ccc3nc(N)nc(N)c3c2C)cc(OC)c1OC

>  <parent_molecule_chembl_id>  (15) 
CHEMBL119

>  <assay_type>  (15) 
B

>  <src_id>  (15) 
1

>  <ligand_efficiency>  (15) 
{u'le': u'0.36', u'bei': u'19.07', u'sei': u'5.99', u'lle': u'4.27'}

>  <standard_flag>  (15) 
True

>  <molecule_chembl_id>  (15) 
CHEMBL119

>  <target_organism>  (15) 
Homo sapiens

>  <standard_units>  (15) 
nM

>  <record_id>  (15) 
105561

>  <document_chembl_id>  (15) 
CHEMBL1134503

>  <bao_format>  (15) 
BAO_0000357

>  <data_validity_description>  (15) 
None

>  <activity_id>  (15) 
94613

>  <standard_type>  (15) 
IC50

>  <target_chembl_id>  (15) 
CHEMBL202

>  <data_validity_comment>  (15) 
None

>  <published_value>  (15) 
0.09

>  <document_year>  (15) 
2001

>  <target_pref_name>  (15) 
Dihydrofolate reductase

>  <assay_chembl_id>  (15) 
CHEMBL668441

>  <standard_relation>  (15) 
=

>  <assay_description>  (15) 
Inhibitory activity against human dihydrofolate reductase

>  <published_relation>  (15) 
=

>  <standard_value>  (15) 
90

>  <qudt_units>  (15) 
http://www.openphacts.org/units/Nanomolar

>  <target_tax_id>  (15) 
9606

>  <bao_label>  (15) 
single protein format

>  <published_units>  (15) 
uM

>  <pchembl_value>  (15) 
7.05

>  <published_type>  (15) 
IC50

>  <activity_comment>  (15) 
None

$$$$

     RDKit          

 22 23  0  0  0  0  0  0  0  0999 V2000
    0.0000    0.0000    0.0000 C   0  0  0  0  0  0  0  0  0  0  0  0
    0.0000    0.0000    0.0000 C   0  0  0  0  0  0  0  0  0  0  0  0
    0.0000    0.0000    0.0000 O   0  0  0  0  0  0  0  0  0  0  0  0
    0.0000    0.0000    0.0000 C   0  0  0  0  0  0  0  0  0  0  0  0
    0.0000    0.0000    0.0000 C   0  0  0  0  0  0  0  0  0  0  0  0
    0.0000    0.0000    0.0000 C   0  0  0  0  0  0  0  0  0  0  0  0
    0.0000    0.0000    0.0000 C   0  0  0  0  0  0  0  0  0  0  0  0
    0.0000    0.0000    0.0000 C   0  0  0  0  0  0  0  0  0  0  0  0
    0.0000    0.0000    0.0000 C   0  0  0  0  0  0  0  0  0  0  0  0
    0.0000    0.0000    0.0000 N   0  0  0  0  0  0  0  0  0  0  0  0
    0.0000    0.0000    0.0000 C   0  0  0  0  0  0  0  0  0  0  0  0
    0.0000    0.0000    0.0000 N   0  0  0  0  0  0  0  0  0  0  0  0
    0.0000    0.0000    0.0000 N   0  0  0  0  0  0  0  0  0  0  0  0
    0.0000    0.0000    0.0000 C   0  0  0  0  0  0  0  0  0  0  0  0
    0.0000    0.0000    0.0000 N   0  0  0  0  0  0  0  0  0  0  0  0
    0.0000    0.0000    0.0000 C   0  0  0  0  0  0  0  0  0  0  0  0
    0.0000    0.0000    0.0000 C   0  0  0  0  0  0  0  0  0  0  0  0
    0.0000    0.0000    0.0000 O   0  0  0  0  0  0  0  0  0  0  0  0
    0.0000    0.0000    0.0000 C   0  0  0  0  0  0  0  0  0  0  0  0
    0.0000    0.0000    0.0000 C   0  0  0  0  0  0  0  0  0  0  0  0
    0.0000    0.0000    0.0000 O   0  0  0  0  0  0  0  0  0  0  0  0
    0.0000    0.0000    0.0000 C   0  0  0  0  0  0  0  0  0  0  0  0
  1  2  1  0
  2  3  1  0
  3  4  1  0
  4  5  2  0
  5  6  1  0
  6  7  1  0
  7  8  1  0
  8  9  2  0
  9 10  1  0
 10 11  2  0
 11 12  1  0
 11 13  1  0
 13 14  2  0
 14 15  1  0
  6 16  2  0
 16 17  1  0
 17 18  1  0
 18 19  1  0
 17 20  2  0
 20 21  1  0
 21 22  1  0
 20  4  1  0
 14  8  1  0
M  END
>  <pIC50>  (16) 
6.77

>  <ChEMBL_ID>  (16) 
CHEMBL23609

>  <document_journal>  (16) 
J. Med. Chem.

>  <bao_endpoint>  (16) 
BAO_0000190

>  <potential_duplicate>  (16) 
False

>  <uo_units>  (16) 
UO_0000065

>  <canonical_smiles>  (16) 
CCOc1cc(Cc2cnc(N)nc2N)cc(OC)c1OC

>  <parent_molecule_chembl_id>  (16) 
CHEMBL23609

>  <assay_type>  (16) 
B

>  <src_id>  (16) 
1

>  <ligand_efficiency>  (16) 
{u'le': u'0.42', u'bei': u'22.24', u'sei': u'6.42', u'lle': u'4.88'}

>  <standard_flag>  (16) 
True

>  <molecule_chembl_id>  (16) 
CHEMBL23609

>  <target_organism>  (16) 
Homo sapiens

>  <standard_units>  (16) 
nM

>  <record_id>  (16) 
33118

>  <document_chembl_id>  (16) 
CHEMBL1124217

>  <bao_format>  (16) 
BAO_0000357

>  <data_validity_description>  (16) 
None

>  <activity_id>  (16) 
96027

>  <standard_type>  (16) 
IC50

>  <target_chembl_id>  (16) 
CHEMBL202

>  <data_validity_comment>  (16) 
None

>  <published_value>  (16) 
1.7E-7

>  <document_year>  (16) 
1988

>  <target_pref_name>  (16) 
Dihydrofolate reductase

>  <assay_chembl_id>  (16) 
CHEMBL879983

>  <standard_relation>  (16) 
=

>  <assay_description>  (16) 
Inhibition of Neisseria gonorrhoeae Dihydrofolate reductase(DHFR)

>  <published_relation>  (16) 
=

>  <standard_value>  (16) 
170

>  <qudt_units>  (16) 
http://www.openphacts.org/units/Nanomolar

>  <target_tax_id>  (16) 
9606

>  <bao_label>  (16) 
single protein format

>  <published_units>  (16) 
M

>  <pchembl_value>  (16) 
6.77

>  <published_type>  (16) 
I50

>  <activity_comment>  (16) 
None

$$$$

     RDKit          

 35 37  0  0  0  0  0  0  0  0999 V2000
    0.0000    0.0000    0.0000 N   0  0  0  0  0  0  0  0  0  0  0  0
    0.0000    0.0000    0.0000 C   0  0  0  0  0  0  0  0  0  0  0  0
    0.0000    0.0000    0.0000 N   0  0  0  0  0  0  0  0  0  0  0  0
    0.0000    0.0000    0.0000 C   0  0  0  0  0  0  0  0  0  0  0  0
    0.0000    0.0000    0.0000 O   0  0  0  0  0  0  0  0  0  0  0  0
    0.0000    0.0000    0.0000 C   0  0  0  0  0  0  0  0  0  0  0  0
    0.0000    0.0000    0.0000 C   0  0  0  0  0  0  0  0  0  0  0  0
    0.0000    0.0000    0.0000 C   0  0  0  0  0  0  0  0  0  0  0  0
    0.0000    0.0000    0.0000 C   0  0  0  0  0  0  0  0  0  0  0  0
    0.0000    0.0000    0.0000 C   0  0  0  0  0  0  0  0  0  0  0  0
    0.0000    0.0000    0.0000 C   0  0  0  0  0  0  0  0  0  0  0  0
    0.0000    0.0000    0.0000 C   0  0  0  0  0  0  0  0  0  0  0  0
    0.0000    0.0000    0.0000 N   0  0  0  0  0  0  0  0  0  0  0  0
    0.0000    0.0000    0.0000 C   0  0  0  0  0  0  0  0  0  0  0  0
    0.0000    0.0000    0.0000 C   0  0  0  0  0  0  0  0  0  0  0  0
    0.0000    0.0000    0.0000 C   0  0  0  0  0  0  0  0  0  0  0  0
    0.0000    0.0000    0.0000 C   0  0  0  0  0  0  0  0  0  0  0  0
    0.0000    0.0000    0.0000 C   0  0  0  0  0  0  0  0  0  0  0  0
    0.0000    0.0000    0.0000 C   0  0  0  0  0  0  0  0  0  0  0  0
    0.0000    0.0000    0.0000 C   0  0  0  0  0  0  0  0  0  0  0  0
    0.0000    0.0000    0.0000 C   0  0  0  0  0  0  0  0  0  0  0  0
    0.0000    0.0000    0.0000 C   0  0  0  0  0  0  0  0  0  0  0  0
    0.0000    0.0000    0.0000 C   0  0  0  0  0  0  0  0  0  0  0  0
    0.0000    0.0000    0.0000 O   0  0  0  0  0  0  0  0  0  0  0  0
    0.0000    0.0000    0.0000 N   0  0  0  0  0  0  0  0  0  0  0  0
    0.0000    0.0000    0.0000 C   0  0  0  0  0  0  0  0  0  0  0  0
    0.0000    0.0000    0.0000 C   0  0  0  0  0  0  0  0  0  0  0  0
    0.0000    0.0000    0.0000 C   0  0  0  0  0  0  0  0  0  0  0  0
    0.0000    0.0000    0.0000 C   0  0  0  0  0  0  0  0  0  0  0  0
    0.0000    0.0000    0.0000 O   0  0  0  0  0  0  0  0  0  0  0  0
    0.0000    0.0000    0.0000 O   0  0  0  0  0  0  0  0  0  0  0  0
    0.0000    0.0000    0.0000 C   0  0  0  0  0  0  0  0  0  0  0  0
    0.0000    0.0000    0.0000 O   0  0  0  0  0  0  0  0  0  0  0  0
    0.0000    0.0000    0.0000 O   0  0  0  0  0  0  0  0  0  0  0  0
    0.0000    0.0000    0.0000 N   0  0  0  0  0  0  0  0  0  0  0  0
  1  2  2  0
  2  3  1  0
  3  4  1  0
  4  5  2  0
  6  1  1  0
  7  6  2  0
  6  8  1  0
  9  7  1  0
  4  8  1  0
  8 10  2  0
 11  9  2  0
 10 11  1  0
 11 12  1  0
 12 13  1  0
 13 14  1  0
 13 15  1  0
 14 16  1  0
 15 17  2  0
 18 15  1  0
 16 19  3  0
 17 20  1  0
 21 18  2  0
 20 22  2  0
 22 21  1  0
 22 23  1  0
 23 24  2  0
 23 25  1  0
 25 26  1  0
 26 27  1  0
 26 28  1  0
 27 29  1  0
 28 30  2  0
 28 31  1  0
 29 32  1  0
 32 33  2  0
 32 34  1  0
 35  2  1  0
M  END
>  <pIC50>  (17) 
5.69142857143

>  <ChEMBL_ID>  (17) 
CHEMBL422395

>  <document_journal>  (17) 
J. Med. Chem.

>  <bao_endpoint>  (17) 
BAO_0000190

>  <potential_duplicate>  (17) 
False

>  <uo_units>  (17) 
UO_0000065

>  <canonical_smiles>  (17) 
NC1=NC(=O)c2cc(CN(CC#C)c3ccc(cc3)C(=O)NC(CCC(=O)O)C(=O)O)ccc2N1

>  <parent_molecule_chembl_id>  (17) 
CHEMBL422395

>  <assay_type>  (17) 
B

>  <src_id>  (17) 
1

>  <ligand_efficiency>  (17) 
{u'le': u'0.25', u'bei': u'13.66', u'sei': u'3.74', u'lle': u'4.09'}

>  <standard_flag>  (17) 
True

>  <molecule_chembl_id>  (17) 
CHEMBL422395

>  <target_organism>  (17) 
Homo sapiens

>  <standard_units>  (17) 
nM

>  <record_id>  (17) 
305665

>  <document_chembl_id>  (17) 
CHEMBL1122470

>  <bao_format>  (17) 
BAO_0000357

>  <data_validity_description>  (17) 
None

>  <activity_id>  (17) 
97048

>  <standard_type>  (17) 
IC50

>  <target_chembl_id>  (17) 
CHEMBL202

>  <data_validity_comment>  (17) 
None

>  <published_value>  (17) 
3E-7

>  <document_year>  (17) 
1983

>  <target_pref_name>  (17) 
Dihydrofolate reductase

>  <assay_chembl_id>  (17) 
CHEMBL663135

>  <standard_relation>  (17) 
=

>  <assay_description>  (17) 
Concentration required for 50% inhibition against dihydrofolate reductase of Streptococcus faecium

>  <published_relation>  (17) 
=

>  <standard_value>  (17) 
300

>  <qudt_units>  (17) 
http://www.openphacts.org/units/Nanomolar

>  <target_tax_id>  (17) 
9606

>  <bao_label>  (17) 
single protein format

>  <published_units>  (17) 
M

>  <pchembl_value>  (17) 
6.52

>  <published_type>  (17) 
IC50

>  <activity_comment>  (17) 
None

$$$$

     RDKit          

 22 23  0  0  0  0  0  0  0  0999 V2000
    0.0000    0.0000    0.0000 C   0  0  0  0  0  0  0  0  0  0  0  0
    0.0000    0.0000    0.0000 C   0  0  0  0  0  0  0  0  0  0  0  0
    0.0000    0.0000    0.0000 C   0  0  0  0  0  0  0  0  0  0  0  0
    0.0000    0.0000    0.0000 C   0  0  0  0  0  0  0  0  0  0  0  0
    0.0000    0.0000    0.0000 C   0  0  0  0  0  0  0  0  0  0  0  0
    0.0000    0.0000    0.0000 C   0  0  0  0  0  0  0  0  0  0  0  0
    0.0000    0.0000    0.0000 C   0  0  0  0  0  0  0  0  0  0  0  0
    0.0000    0.0000    0.0000 C   0  0  0  0  0  0  0  0  0  0  0  0
    0.0000    0.0000    0.0000 C   0  0  0  0  0  0  0  0  0  0  0  0
    0.0000    0.0000    0.0000 N   0  0  0  0  0  0  0  0  0  0  0  0
    0.0000    0.0000    0.0000 C   0  0  0  0  0  0  0  0  0  0  0  0
    0.0000    0.0000    0.0000 N   0  0  0  0  0  0  0  0  0  0  0  0
    0.0000    0.0000    0.0000 N   0  0  0  0  0  0  0  0  0  0  0  0
    0.0000    0.0000    0.0000 C   0  0  0  0  0  0  0  0  0  0  0  0
    0.0000    0.0000    0.0000 N   0  0  0  0  0  0  0  0  0  0  0  0
    0.0000    0.0000    0.0000 C   0  0  0  0  0  0  0  0  0  0  0  0
    0.0000    0.0000    0.0000 C   0  0  0  0  0  0  0  0  0  0  0  0
    0.0000    0.0000    0.0000 C   0  0  0  0  0  0  0  0  0  0  0  0
    0.0000    0.0000    0.0000 C   0  0  0  0  0  0  0  0  0  0  0  0
    0.0000    0.0000    0.0000 C   0  0  0  0  0  0  0  0  0  0  0  0
    0.0000    0.0000    0.0000 C   0  0  0  0  0  0  0  0  0  0  0  0
    0.0000    0.0000    0.0000 O   0  0  0  0  0  0  0  0  0  0  0  0
  1  2  1  0
  2  3  1  0
  2  4  1  0
  4  5  2  0
  5  6  1  0
  6  7  1  0
  7  8  1  0
  8  9  2  0
  9 10  1  0
 10 11  2  0
 11 12  1  0
 11 13  1  0
 13 14  2  0
 14 15  1  0
  6 16  2  0
 16 17  1  0
 17 18  1  0
 18 19  1  0
 18 20  1  0
 17 21  2  0
 21 22  1  0
 21  4  1  0
 14  8  1  0
M  END
>  <pIC50>  (18) 
7.54

>  <ChEMBL_ID>  (18) 
CHEMBL440946

>  <document_journal>  (18) 
J. Med. Chem.

>  <bao_endpoint>  (18) 
BAO_0000190

>  <potential_duplicate>  (18) 
False

>  <uo_units>  (18) 
UO_0000065

>  <canonical_smiles>  (18) 
CC(C)c1cc(Cc2cnc(N)nc2N)cc(C(C)C)c1O

>  <parent_molecule_chembl_id>  (18) 
CHEMBL440946

>  <assay_type>  (18) 
B

>  <src_id>  (18) 
1

>  <ligand_efficiency>  (18) 
{u'le': u'0.47', u'bei': u'25.09', u'sei': u'7.69', u'lle': u'3.8'}

>  <standard_flag>  (18) 
True

>  <molecule_chembl_id>  (18) 
CHEMBL440946

>  <target_organism>  (18) 
Homo sapiens

>  <standard_units>  (18) 
nM

>  <record_id>  (18) 
33105

>  <document_chembl_id>  (18) 
CHEMBL1124217

>  <bao_format>  (18) 
BAO_0000357

>  <data_validity_description>  (18) 
None

>  <activity_id>  (18) 
100975

>  <standard_type>  (18) 
IC50

>  <target_chembl_id>  (18) 
CHEMBL202

>  <data_validity_comment>  (18) 
None

>  <published_value>  (18) 
2.9E-8

>  <document_year>  (18) 
1988

>  <target_pref_name>  (18) 
Dihydrofolate reductase

>  <assay_chembl_id>  (18) 
CHEMBL879983

>  <standard_relation>  (18) 
=

>  <assay_description>  (18) 
Inhibition of Neisseria gonorrhoeae Dihydrofolate reductase(DHFR)

>  <published_relation>  (18) 
=

>  <standard_value>  (18) 
29

>  <qudt_units>  (18) 
http://www.openphacts.org/units/Nanomolar

>  <target_tax_id>  (18) 
9606

>  <bao_label>  (18) 
single protein format

>  <published_units>  (18) 
M

>  <pchembl_value>  (18) 
7.54

>  <published_type>  (18) 
I50

>  <activity_comment>  (18) 
None

$$$$

     RDKit          

 19 20  0  0  0  0  0  0  0  0999 V2000
    0.0000    0.0000    0.0000 C   0  0  0  0  0  0  0  0  0  0  0  0
    0.0000    0.0000    0.0000 O   0  0  0  0  0  0  0  0  0  0  0  0
    0.0000    0.0000    0.0000 C   0  0  0  0  0  0  0  0  0  0  0  0
    0.0000    0.0000    0.0000 C   0  0  0  0  0  0  0  0  0  0  0  0
    0.0000    0.0000    0.0000 C   0  0  0  0  0  0  0  0  0  0  0  0
    0.0000    0.0000    0.0000 C   0  0  0  0  0  0  0  0  0  0  0  0
    0.0000    0.0000    0.0000 C   0  0  0  0  0  0  0  0  0  0  0  0
    0.0000    0.0000    0.0000 C   0  0  0  0  0  0  0  0  0  0  0  0
    0.0000    0.0000    0.0000 C   0  0  0  0  0  0  0  0  0  0  0  0
    0.0000    0.0000    0.0000 C   0  0  0  0  0  0  0  0  0  0  0  0
    0.0000    0.0000    0.0000 N   0  0  0  0  0  0  0  0  0  0  0  0
    0.0000    0.0000    0.0000 C   0  0  0  0  0  0  0  0  0  0  0  0
    0.0000    0.0000    0.0000 N   0  0  0  0  0  0  0  0  0  0  0  0
    0.0000    0.0000    0.0000 N   0  0  0  0  0  0  0  0  0  0  0  0
    0.0000    0.0000    0.0000 C   0  0  0  0  0  0  0  0  0  0  0  0
    0.0000    0.0000    0.0000 N   0  0  0  0  0  0  0  0  0  0  0  0
    0.0000    0.0000    0.0000 C   0  0  0  0  0  0  0  0  0  0  0  0
    0.0000    0.0000    0.0000 C   0  0  0  0  0  0  0  0  0  0  0  0
    0.0000    0.0000    0.0000 C   0  0  0  0  0  0  0  0  0  0  0  0
  1  2  1  0
  2  3  1  0
  3  4  2  0
  4  5  1  0
  4  6  1  0
  6  7  2  0
  7  8  1  0
  8  9  1  0
  9 10  2  0
 10 11  1  0
 11 12  2  0
 12 13  1  0
 12 14  1  0
 14 15  2  0
 15 16  1  0
  7 17  1  0
 17 18  2  0
 18 19  1  0
 18  3  1  0
 15  9  1  0
M  END
>  <pIC50>  (19) 
6.43

>  <ChEMBL_ID>  (19) 
CHEMBL287553

>  <document_journal>  (19) 
J. Med. Chem.

>  <bao_endpoint>  (19) 
BAO_0000190

>  <potential_duplicate>  (19) 
False

>  <uo_units>  (19) 
UO_0000065

>  <canonical_smiles>  (19) 
COc1c(C)cc(Cc2cnc(N)nc2N)cc1C

>  <parent_molecule_chembl_id>  (19) 
CHEMBL287553

>  <assay_type>  (19) 
B

>  <src_id>  (19) 
1

>  <ligand_efficiency>  (19) 
{u'le': u'0.46', u'bei': u'24.9', u'sei': u'7.39', u'lle': u'3.88'}

>  <standard_flag>  (19) 
True

>  <molecule_chembl_id>  (19) 
CHEMBL287553

>  <target_organism>  (19) 
Homo sapiens

>  <standard_units>  (19) 
nM

>  <record_id>  (19) 
33115

>  <document_chembl_id>  (19) 
CHEMBL1124217

>  <bao_format>  (19) 
BAO_0000357

>  <data_validity_description>  (19) 
None

>  <activity_id>  (19) 
101105

>  <standard_type>  (19) 
IC50

>  <target_chembl_id>  (19) 
CHEMBL202

>  <data_validity_comment>  (19) 
None

>  <published_value>  (19) 
3.7E-7

>  <document_year>  (19) 
1988

>  <target_pref_name>  (19) 
Dihydrofolate reductase

>  <assay_chembl_id>  (19) 
CHEMBL879983

>  <standard_relation>  (19) 
=

>  <assay_description>  (19) 
Inhibition of Neisseria gonorrhoeae Dihydrofolate reductase(DHFR)

>  <published_relation>  (19) 
=

>  <standard_value>  (19) 
370

>  <qudt_units>  (19) 
http://www.openphacts.org/units/Nanomolar

>  <target_tax_id>  (19) 
9606

>  <bao_label>  (19) 
single protein format

>  <published_units>  (19) 
M

>  <pchembl_value>  (19) 
6.43

>  <published_type>  (19) 
I50

>  <activity_comment>  (19) 
None

$$$$

     RDKit          

 25 26  0  0  0  0  0  0  0  0999 V2000
    0.0000    0.0000    0.0000 C   0  0  0  0  0  0  0  0  0  0  0  0
    0.0000    0.0000    0.0000 O   0  0  0  0  0  0  0  0  0  0  0  0
    0.0000    0.0000    0.0000 C   0  0  0  0  0  0  0  0  0  0  0  0
    0.0000    0.0000    0.0000 C   0  0  0  0  0  0  0  0  0  0  0  0
    0.0000    0.0000    0.0000 C   0  0  0  0  0  0  0  0  0  0  0  0
    0.0000    0.0000    0.0000 C   0  0  0  0  0  0  0  0  0  0  0  0
    0.0000    0.0000    0.0000 C   0  0  0  0  0  0  0  0  0  0  0  0
    0.0000    0.0000    0.0000 C   0  0  0  0  0  0  0  0  0  0  0  0
    0.0000    0.0000    0.0000 C   0  0  0  0  0  0  0  0  0  0  0  0
    0.0000    0.0000    0.0000 N   0  0  0  0  0  0  0  0  0  0  0  0
    0.0000    0.0000    0.0000 C   0  0  0  0  0  0  0  0  0  0  0  0
    0.0000    0.0000    0.0000 N   0  0  0  0  0  0  0  0  0  0  0  0
    0.0000    0.0000    0.0000 N   0  0  0  0  0  0  0  0  0  0  0  0
    0.0000    0.0000    0.0000 C   0  0  0  0  0  0  0  0  0  0  0  0
    0.0000    0.0000    0.0000 N   0  0  0  0  0  0  0  0  0  0  0  0
    0.0000    0.0000    0.0000 C   0  0  0  0  0  0  0  0  0  0  0  0
    0.0000    0.0000    0.0000 C   0  0  0  0  0  0  0  0  0  0  0  0
    0.0000    0.0000    0.0000 C   0  0  0  0  0  0  0  0  0  0  0  0
    0.0000    0.0000    0.0000 C   0  0  0  0  0  0  0  0  0  0  0  0
    0.0000    0.0000    0.0000 C   0  0  0  0  0  0  0  0  0  0  0  0
    0.0000    0.0000    0.0000 C   0  0  0  0  0  0  0  0  0  0  0  0
    0.0000    0.0000    0.0000 C   0  0  0  0  0  0  0  0  0  0  0  0
    0.0000    0.0000    0.0000 C   0  0  0  0  0  0  0  0  0  0  0  0
    0.0000    0.0000    0.0000 C   0  0  0  0  0  0  0  0  0  0  0  0
    0.0000    0.0000    0.0000 C   0  0  0  0  0  0  0  0  0  0  0  0
  1  2  1  0
  2  3  1  0
  3  4  2  0
  4  5  1  0
  5  6  2  0
  6  7  1  0
  7  8  1  0
  8  9  2  0
  9 10  1  0
 10 11  2  0
 11 12  1  0
 11 13  1  0
 13 14  2  0
 14 15  1  0
  6 16  1  0
 16 17  2  0
 17 18  1  0
 18 19  1  0
 18 20  1  0
 18 21  1  0
  4 22  1  0
 22 23  1  0
 22 24  1  0
 22 25  1  0
 17  3  1  0
 14  8  1  0
M  END
>  <pIC50>  (20) 
7.24

>  <ChEMBL_ID>  (20) 
CHEMBL24374

>  <document_journal>  (20) 
J. Med. Chem.

>  <bao_endpoint>  (20) 
BAO_0000190

>  <potential_duplicate>  (20) 
False

>  <uo_units>  (20) 
UO_0000065

>  <canonical_smiles>  (20) 
COc1c(cc(Cc2cnc(N)nc2N)cc1C(C)(C)C)C(C)(C)C

>  <parent_molecule_chembl_id>  (20) 
CHEMBL24374

>  <assay_type>  (20) 
B

>  <src_id>  (20) 
1

>  <ligand_efficiency>  (20) 
{u'le': u'0.4', u'bei': u'21.13', u'sei': u'8.31', u'lle': u'2.86'}

>  <standard_flag>  (20) 
True

>  <molecule_chembl_id>  (20) 
CHEMBL24374

>  <target_organism>  (20) 
Homo sapiens

>  <standard_units>  (20) 
nM

>  <record_id>  (20) 
33108

>  <document_chembl_id>  (20) 
CHEMBL1124217

>  <bao_format>  (20) 
BAO_0000357

>  <data_validity_description>  (20) 
None

>  <activity_id>  (20) 
101113

>  <standard_type>  (20) 
IC50

>  <target_chembl_id>  (20) 
CHEMBL202

>  <data_validity_comment>  (20) 
None

>  <published_value>  (20) 
5.8E-8

>  <document_year>  (20) 
1988

>  <target_pref_name>  (20) 
Dihydrofolate reductase

>  <assay_chembl_id>  (20) 
CHEMBL879983

>  <standard_relation>  (20) 
=

>  <assay_description>  (20) 
Inhibition of Neisseria gonorrhoeae Dihydrofolate reductase(DHFR)

>  <published_relation>  (20) 
=

>  <standard_value>  (20) 
58

>  <qudt_units>  (20) 
http://www.openphacts.org/units/Nanomolar

>  <target_tax_id>  (20) 
9606

>  <bao_label>  (20) 
single protein format

>  <published_units>  (20) 
M

>  <pchembl_value>  (20) 
7.24

>  <published_type>  (20) 
I50

>  <activity_comment>  (20) 
None

$$$$

     RDKit          

 22 23  0  0  0  0  0  0  0  0999 V2000
    0.0000    0.0000    0.0000 C   0  0  0  0  0  0  0  0  0  0  0  0
    0.0000    0.0000    0.0000 C   0  0  0  0  0  0  0  0  0  0  0  0
    0.0000    0.0000    0.0000 C   0  0  0  0  0  0  0  0  0  0  0  0
    0.0000    0.0000    0.0000 C   0  0  0  0  0  0  0  0  0  0  0  0
    0.0000    0.0000    0.0000 C   0  0  0  0  0  0  0  0  0  0  0  0
    0.0000    0.0000    0.0000 C   0  0  0  0  0  0  0  0  0  0  0  0
    0.0000    0.0000    0.0000 C   0  0  0  0  0  0  0  0  0  0  0  0
    0.0000    0.0000    0.0000 C   0  0  0  0  0  0  0  0  0  0  0  0
    0.0000    0.0000    0.0000 C   0  0  0  0  0  0  0  0  0  0  0  0
    0.0000    0.0000    0.0000 N   0  0  0  0  0  0  0  0  0  0  0  0
    0.0000    0.0000    0.0000 C   0  0  0  0  0  0  0  0  0  0  0  0
    0.0000    0.0000    0.0000 N   0  0  0  0  0  0  0  0  0  0  0  0
    0.0000    0.0000    0.0000 N   0  0  0  0  0  0  0  0  0  0  0  0
    0.0000    0.0000    0.0000 C   0  0  0  0  0  0  0  0  0  0  0  0
    0.0000    0.0000    0.0000 N   0  0  0  0  0  0  0  0  0  0  0  0
    0.0000    0.0000    0.0000 C   0  0  0  0  0  0  0  0  0  0  0  0
    0.0000    0.0000    0.0000 C   0  0  0  0  0  0  0  0  0  0  0  0
    0.0000    0.0000    0.0000 C   0  0  0  0  0  0  0  0  0  0  0  0
    0.0000    0.0000    0.0000 C   0  0  0  0  0  0  0  0  0  0  0  0
    0.0000    0.0000    0.0000 C   0  0  0  0  0  0  0  0  0  0  0  0
    0.0000    0.0000    0.0000 C   0  0  0  0  0  0  0  0  0  0  0  0
    0.0000    0.0000    0.0000 O   0  0  0  0  0  0  0  0  0  0  0  0
  1  2  1  0
  2  3  1  0
  3  4  1  0
  4  5  2  0
  5  6  1  0
  6  7  1  0
  7  8  1  0
  8  9  2  0
  9 10  1  0
 10 11  2  0
 11 12  1  0
 11 13  1  0
 13 14  2  0
 14 15  1  0
  6 16  2  0
 16 17  1  0
 17 18  1  0
 18 19  1  0
 19 20  2  0
 17 21  2  0
 21 22  1  0
 21  4  1  0
 14  8  1  0
M  END
>  <pIC50>  (21) 
7.7

>  <ChEMBL_ID>  (21) 
CHEMBL24503

>  <document_journal>  (21) 
J. Med. Chem.

>  <bao_endpoint>  (21) 
BAO_0000190

>  <potential_duplicate>  (21) 
False

>  <uo_units>  (21) 
UO_0000065

>  <canonical_smiles>  (21) 
CCCc1cc(Cc2cnc(N)nc2N)cc(CC=C)c1O

>  <parent_molecule_chembl_id>  (21) 
CHEMBL24503

>  <assay_type>  (21) 
B

>  <src_id>  (21) 
1

>  <ligand_efficiency>  (21) 
{u'le': u'0.48', u'bei': u'25.8', u'sei': u'7.85', u'lle': u'3.94'}

>  <standard_flag>  (21) 
True

>  <molecule_chembl_id>  (21) 
CHEMBL24503

>  <target_organism>  (21) 
Homo sapiens

>  <standard_units>  (21) 
nM

>  <record_id>  (21) 
33117

>  <document_chembl_id>  (21) 
CHEMBL1124217

>  <bao_format>  (21) 
BAO_0000357

>  <data_validity_description>  (21) 
None

>  <activity_id>  (21) 
103163

>  <standard_type>  (21) 
IC50

>  <target_chembl_id>  (21) 
CHEMBL202

>  <data_validity_comment>  (21) 
None

>  <published_value>  (21) 
2E-8

>  <document_year>  (21) 
1988

>  <target_pref_name>  (21) 
Dihydrofolate reductase

>  <assay_chembl_id>  (21) 
CHEMBL879983

>  <standard_relation>  (21) 
=

>  <assay_description>  (21) 
Inhibition of Neisseria gonorrhoeae Dihydrofolate reductase(DHFR)

>  <published_relation>  (21) 
=

>  <standard_value>  (21) 
20

>  <qudt_units>  (21) 
http://www.openphacts.org/units/Nanomolar

>  <target_tax_id>  (21) 
9606

>  <bao_label>  (21) 
single protein format

>  <published_units>  (21) 
M

>  <pchembl_value>  (21) 
7.7

>  <published_type>  (21) 
I50

>  <activity_comment>  (21) 
None

$$$$

     RDKit          

 21 22  0  0  0  0  0  0  0  0999 V2000
    0.0000    0.0000    0.0000 C   0  0  0  0  0  0  0  0  0  0  0  0
    0.0000    0.0000    0.0000 C   0  0  0  0  0  0  0  0  0  0  0  0
    0.0000    0.0000    0.0000 C   0  0  0  0  0  0  0  0  0  0  0  0
    0.0000    0.0000    0.0000 C   0  0  0  0  0  0  0  0  0  0  0  0
    0.0000    0.0000    0.0000 C   0  0  0  0  0  0  0  0  0  0  0  0
    0.0000    0.0000    0.0000 C   0  0  0  0  0  0  0  0  0  0  0  0
    0.0000    0.0000    0.0000 C   0  0  0  0  0  0  0  0  0  0  0  0
    0.0000    0.0000    0.0000 C   0  0  0  0  0  0  0  0  0  0  0  0
    0.0000    0.0000    0.0000 C   0  0  0  0  0  0  0  0  0  0  0  0
    0.0000    0.0000    0.0000 N   0  0  0  0  0  0  0  0  0  0  0  0
    0.0000    0.0000    0.0000 C   0  0  0  0  0  0  0  0  0  0  0  0
    0.0000    0.0000    0.0000 N   0  0  0  0  0  0  0  0  0  0  0  0
    0.0000    0.0000    0.0000 N   0  0  0  0  0  0  0  0  0  0  0  0
    0.0000    0.0000    0.0000 C   0  0  0  0  0  0  0  0  0  0  0  0
    0.0000    0.0000    0.0000 N   0  0  0  0  0  0  0  0  0  0  0  0
    0.0000    0.0000    0.0000 C   0  0  0  0  0  0  0  0  0  0  0  0
    0.0000    0.0000    0.0000 C   0  0  0  0  0  0  0  0  0  0  0  0
    0.0000    0.0000    0.0000 C   0  0  0  0  0  0  0  0  0  0  0  0
    0.0000    0.0000    0.0000 C   0  0  0  0  0  0  0  0  0  0  0  0
    0.0000    0.0000    0.0000 C   0  0  0  0  0  0  0  0  0  0  0  0
    0.0000    0.0000    0.0000 O   0  0  0  0  0  0  0  0  0  0  0  0
  1  2  1  0
  2  3  1  0
  3  4  1  0
  4  5  2  0
  5  6  1  0
  6  7  1  0
  7  8  1  0
  8  9  2  0
  9 10  1  0
 10 11  2  0
 11 12  1  0
 11 13  1  0
 13 14  2  0
 14 15  1  0
  6 16  2  0
 16 17  1  0
 17 18  1  0
 18 19  1  0
 17 20  2  0
 20 21  1  0
 20  4  1  0
 14  8  1  0
M  END
>  <pIC50>  (22) 
7.31

>  <ChEMBL_ID>  (22) 
CHEMBL25888

>  <document_journal>  (22) 
J. Med. Chem.

>  <bao_endpoint>  (22) 
BAO_0000190

>  <potential_duplicate>  (22) 
False

>  <uo_units>  (22) 
UO_0000065

>  <canonical_smiles>  (22) 
CCCc1cc(Cc2cnc(N)nc2N)cc(CC)c1O

>  <parent_molecule_chembl_id>  (22) 
CHEMBL25888

>  <assay_type>  (22) 
B

>  <src_id>  (22) 
1

>  <ligand_efficiency>  (22) 
{u'le': u'0.48', u'bei': u'25.53', u'sei': u'7.46', u'lle': u'3.62'}

>  <standard_flag>  (22) 
True

>  <molecule_chembl_id>  (22) 
CHEMBL25888

>  <target_organism>  (22) 
Homo sapiens

>  <standard_units>  (22) 
nM

>  <record_id>  (22) 
33122

>  <document_chembl_id>  (22) 
CHEMBL1124217

>  <bao_format>  (22) 
BAO_0000357

>  <data_validity_description>  (22) 
None

>  <activity_id>  (22) 
104025

>  <standard_type>  (22) 
IC50

>  <target_chembl_id>  (22) 
CHEMBL202

>  <data_validity_comment>  (22) 
None

>  <published_value>  (22) 
4.9E-8

>  <document_year>  (22) 
1988

>  <target_pref_name>  (22) 
Dihydrofolate reductase

>  <assay_chembl_id>  (22) 
CHEMBL879983

>  <standard_relation>  (22) 
=

>  <assay_description>  (22) 
Inhibition of Neisseria gonorrhoeae Dihydrofolate reductase(DHFR)

>  <published_relation>  (22) 
=

>  <standard_value>  (22) 
49

>  <qudt_units>  (22) 
http://www.openphacts.org/units/Nanomolar

>  <target_tax_id>  (22) 
9606

>  <bao_label>  (22) 
single protein format

>  <published_units>  (22) 
M

>  <pchembl_value>  (22) 
7.31

>  <published_type>  (22) 
I50

>  <activity_comment>  (22) 
None

$$$$

     RDKit          

 32 34  0  0  0  0  0  0  0  0999 V2000
    0.0000    0.0000    0.0000 N   0  0  0  0  0  0  0  0  0  0  0  0
    0.0000    0.0000    0.0000 C   0  0  0  0  0  0  0  0  0  0  0  0
    0.0000    0.0000    0.0000 C   0  0  0  0  0  0  0  0  0  0  0  0
    0.0000    0.0000    0.0000 C   0  0  0  0  0  0  0  0  0  0  0  0
    0.0000    0.0000    0.0000 N   0  0  0  0  0  0  0  0  0  0  0  0
    0.0000    0.0000    0.0000 C   0  0  0  0  0  0  0  0  0  0  0  0
    0.0000    0.0000    0.0000 C   0  0  0  0  0  0  0  0  0  0  0  0
    0.0000    0.0000    0.0000 C   0  0  0  0  0  0  0  0  0  0  0  0
    0.0000    0.0000    0.0000 C   0  0  0  0  0  0  0  0  0  0  0  0
    0.0000    0.0000    0.0000 C   0  0  0  0  0  0  0  0  0  0  0  0
    0.0000    0.0000    0.0000 C   0  0  0  0  0  0  0  0  0  0  0  0
    0.0000    0.0000    0.0000 C   0  0  0  0  0  0  0  0  0  0  0  0
    0.0000    0.0000    0.0000 C   0  0  0  0  0  0  0  0  0  0  0  0
    0.0000    0.0000    0.0000 C   0  0  0  0  0  0  0  0  0  0  0  0
    0.0000    0.0000    0.0000 C   0  0  0  0  0  0  0  0  0  0  0  0
    0.0000    0.0000    0.0000 C   0  0  0  0  0  0  0  0  0  0  0  0
    0.0000    0.0000    0.0000 C   0  0  0  0  0  0  0  0  0  0  0  0
    0.0000    0.0000    0.0000 O   0  0  0  0  0  0  0  0  0  0  0  0
    0.0000    0.0000    0.0000 N   0  0  0  0  0  0  0  0  0  0  0  0
    0.0000    0.0000    0.0000 C   0  0  0  0  0  0  0  0  0  0  0  0
    0.0000    0.0000    0.0000 C   0  0  0  0  0  0  0  0  0  0  0  0
    0.0000    0.0000    0.0000 C   0  0  0  0  0  0  0  0  0  0  0  0
    0.0000    0.0000    0.0000 C   0  0  0  0  0  0  0  0  0  0  0  0
    0.0000    0.0000    0.0000 O   0  0  0  0  0  0  0  0  0  0  0  0
    0.0000    0.0000    0.0000 O   0  0  0  0  0  0  0  0  0  0  0  0
    0.0000    0.0000    0.0000 C   0  0  0  0  0  0  0  0  0  0  0  0
    0.0000    0.0000    0.0000 O   0  0  0  0  0  0  0  0  0  0  0  0
    0.0000    0.0000    0.0000 O   0  0  0  0  0  0  0  0  0  0  0  0
    0.0000    0.0000    0.0000 C   0  0  0  0  0  0  0  0  0  0  0  0
    0.0000    0.0000    0.0000 C   0  0  0  0  0  0  0  0  0  0  0  0
    0.0000    0.0000    0.0000 C   0  0  0  0  0  0  0  0  0  0  0  0
    0.0000    0.0000    0.0000 C   0  0  0  0  0  0  0  0  0  0  0  0
  1  2  1  0
  2  3  2  0
  3  4  1  0
  4  5  1  0
  4  6  2  0
  6  7  1  0
  7  8  2  0
  8  9  1  0
  9 10  1  0
 10 11  1  0
 11 12  2  0
 12 13  1  0
 13 14  2  0
 14 15  1  0
 15 16  2  0
 14 17  1  0
 17 18  2  0
 17 19  1  0
 19 20  1  0
 20 21  1  0
 21 22  1  0
 22 23  1  0
 23 24  2  0
 23 25  1  0
 20 26  1  0
 26 27  2  0
 26 28  1  0
  8 29  1  0
 29 30  2  0
 30 31  1  0
 31 32  2  0
 32  2  1  0
 31  6  1  0
 16 11  1  0
M  END
>  <pIC50>  (23) 
7.85

>  <ChEMBL_ID>  (23) 
CHEMBL109260

>  <document_journal>  (23) 
J. Med. Chem.

>  <bao_endpoint>  (23) 
BAO_0000190

>  <potential_duplicate>  (23) 
False

>  <uo_units>  (23) 
UO_0000065

>  <canonical_smiles>  (23) 
Nc1cc(N)c2cc(CCc3ccc(cc3)C(=O)NC(CCC(=O)O)C(=O)O)ccc2c1

>  <parent_molecule_chembl_id>  (23) 
CHEMBL109260

>  <assay_type>  (23) 
B

>  <src_id>  (23) 
1

>  <ligand_efficiency>  (23) 
{u'le': u'0.34', u'bei': u'18.04', u'sei': u'5.04', u'lle': u'5.3'}

>  <standard_flag>  (23) 
True

>  <molecule_chembl_id>  (23) 
CHEMBL109260

>  <target_organism>  (23) 
Homo sapiens

>  <standard_units>  (23) 
nM

>  <record_id>  (23) 
205182

>  <document_chembl_id>  (23) 
CHEMBL1121411

>  <bao_format>  (23) 
BAO_0000019

>  <data_validity_description>  (23) 
None

>  <activity_id>  (23) 
134130

>  <standard_type>  (23) 
IC50

>  <target_chembl_id>  (23) 
CHEMBL202

>  <data_validity_comment>  (23) 
None

>  <published_value>  (23) 
0.014

>  <document_year>  (23) 
1980

>  <target_pref_name>  (23) 
Dihydrofolate reductase

>  <assay_chembl_id>  (23) 
CHEMBL667987

>  <standard_relation>  (23) 
=

>  <assay_description>  (23) 
Tested for inhibition against dihydro folate reductase in Pigeon liver

>  <published_relation>  (23) 
=

>  <standard_value>  (23) 
14

>  <qudt_units>  (23) 
http://www.openphacts.org/units/Nanomolar

>  <target_tax_id>  (23) 
9606

>  <bao_label>  (23) 
assay format

>  <published_units>  (23) 
uM

>  <pchembl_value>  (23) 
7.85

>  <published_type>  (23) 
I50

>  <activity_comment>  (23) 
None

$$$$

     RDKit          

 32 34  0  0  0  0  0  0  0  0999 V2000
    0.0000    0.0000    0.0000 O   0  0  0  0  0  0  0  0  0  0  0  0
    0.0000    0.0000    0.0000 C   0  0  0  0  0  0  0  0  0  0  0  0
    0.0000    0.0000    0.0000 N   0  0  0  0  0  0  0  0  0  0  0  0
    0.0000    0.0000    0.0000 C   0  0  0  0  0  0  0  0  0  0  0  0
    0.0000    0.0000    0.0000 C   0  0  0  0  0  0  0  0  0  0  0  0
    0.0000    0.0000    0.0000 C   0  0  0  0  0  0  0  0  0  0  0  0
    0.0000    0.0000    0.0000 Cl  0  0  0  0  0  0  0  0  0  0  0  0
    0.0000    0.0000    0.0000 C   0  0  0  0  0  0  0  0  0  0  0  0
    0.0000    0.0000    0.0000 C   0  0  0  0  0  0  0  0  0  0  0  0
    0.0000    0.0000    0.0000 N   0  0  0  0  0  0  0  0  0  0  0  0
    0.0000    0.0000    0.0000 C   0  0  0  0  0  0  0  0  0  0  0  0
    0.0000    0.0000    0.0000 C   0  0  0  0  0  0  0  0  0  0  0  0
    0.0000    0.0000    0.0000 C   0  0  0  0  0  0  0  0  0  0  0  0
    0.0000    0.0000    0.0000 N   0  0  0  0  0  0  0  0  0  0  0  0
    0.0000    0.0000    0.0000 N   0  0  0  0  0  0  0  0  0  0  0  0
    0.0000    0.0000    0.0000 C   0  0  0  0  0  0  0  0  0  0  0  0
    0.0000    0.0000    0.0000 C   0  0  0  0  0  0  0  0  0  0  0  0
    0.0000    0.0000    0.0000 C   0  0  0  0  0  0  0  0  0  0  0  0
    0.0000    0.0000    0.0000 C   0  0  0  0  0  0  0  0  0  0  0  0
    0.0000    0.0000    0.0000 C   0  0  0  0  0  0  0  0  0  0  0  0
    0.0000    0.0000    0.0000 C   0  0  0  0  0  0  0  0  0  0  0  0
    0.0000    0.0000    0.0000 C   0  0  0  0  0  0  0  0  0  0  0  0
    0.0000    0.0000    0.0000 N   0  0  0  0  0  0  0  0  0  0  0  0
    0.0000    0.0000    0.0000 O   0  0  0  0  0  0  0  0  0  0  0  0
    0.0000    0.0000    0.0000 C   0  0  0  0  0  0  0  0  0  0  0  0
    0.0000    0.0000    0.0000 C   0  0  0  0  0  0  0  0  0  0  0  0
    0.0000    0.0000    0.0000 C   0  0  0  0  0  0  0  0  0  0  0  0
    0.0000    0.0000    0.0000 C   0  0  0  0  0  0  0  0  0  0  0  0
    0.0000    0.0000    0.0000 O   0  0  0  0  0  0  0  0  0  0  0  0
    0.0000    0.0000    0.0000 O   0  0  0  0  0  0  0  0  0  0  0  0
    0.0000    0.0000    0.0000 C   0  0  0  0  0  0  0  0  0  0  0  0
    0.0000    0.0000    0.0000 N   0  0  0  0  0  0  0  0  0  0  0  0
  1  2  2  0
  2  3  1  0
  2  4  1  0
  4  5  2  0
  4  6  1  0
  5  7  1  0
  5  8  1  0
  9  6  2  0
  6 10  1  0
 11  8  1  0
  8 12  2  0
 12  9  1  0
 10 13  2  0
 14 11  1  0
 13 15  1  0
 13  3  1  0
 16 14  1  0
 17 16  2  0
 16 18  1  0
 19 17  1  0
 18 20  2  0
 21 19  2  0
 20 21  1  0
 22 21  1  0
 23 22  1  0
 22 24  2  0
 25 23  1  0
 26 25  1  0
 25 27  1  0
 28 26  1  0
 27 29  2  0
 27 30  1  0
 31 28  1  0
 32 31  1  0
M  END
>  <pIC50>  (24) 
6.37

>  <ChEMBL_ID>  (24) 
CHEMBL288142

>  <document_journal>  (24) 
J. Med. Chem.

>  <bao_endpoint>  (24) 
BAO_0000190

>  <potential_duplicate>  (24) 
True

>  <uo_units>  (24) 
UO_0000065

>  <canonical_smiles>  (24) 
NCCCC(NC(=O)c1ccc(NCc2ccc3nc(N)nc(O)c3c2Cl)cc1)C(=O)O

>  <parent_molecule_chembl_id>  (24) 
CHEMBL288142

>  <assay_type>  (24) 
B

>  <src_id>  (24) 
1

>  <ligand_efficiency>  (24) 
{u'le': u'0.27', u'bei': u'13.87', u'sei': u'3.61', u'lle': u'6.7'}

>  <standard_flag>  (24) 
True

>  <molecule_chembl_id>  (24) 
CHEMBL288142

>  <target_organism>  (24) 
Homo sapiens

>  <standard_units>  (24) 
nM

>  <record_id>  (24) 
105788

>  <document_chembl_id>  (24) 
CHEMBL1126177

>  <bao_format>  (24) 
BAO_0000357

>  <data_validity_description>  (24) 
None

>  <activity_id>  (24) 
203057

>  <standard_type>  (24) 
IC50

>  <target_chembl_id>  (24) 
CHEMBL202

>  <data_validity_comment>  (24) 
None

>  <published_value>  (24) 
0.43

>  <document_year>  (24) 
1992

>  <target_pref_name>  (24) 
Dihydrofolate reductase

>  <assay_chembl_id>  (24) 
CHEMBL669277

>  <standard_relation>  (24) 
=

>  <assay_description>  (24) 
Compound was evaluated for its inhibitory activity against human Dihydrofolate reductase

>  <published_relation>  (24) 
=

>  <standard_value>  (24) 
430

>  <qudt_units>  (24) 
http://www.openphacts.org/units/Nanomolar

>  <target_tax_id>  (24) 
9606

>  <bao_label>  (24) 
single protein format

>  <published_units>  (24) 
uM

>  <pchembl_value>  (24) 
6.37

>  <published_type>  (24) 
I50

>  <activity_comment>  (24) 
None

$$$$

     RDKit          

 31 33  0  0  0  0  0  0  0  0999 V2000
    0.0000    0.0000    0.0000 N   0  0  0  0  0  0  0  0  0  0  0  0
    0.0000    0.0000    0.0000 C   0  0  0  0  0  0  0  0  0  0  0  0
    0.0000    0.0000    0.0000 N   0  0  0  0  0  0  0  0  0  0  0  0
    0.0000    0.0000    0.0000 C   0  0  0  0  0  0  0  0  0  0  0  0
    0.0000    0.0000    0.0000 N   0  0  0  0  0  0  0  0  0  0  0  0
    0.0000    0.0000    0.0000 C   0  0  0  0  0  0  0  0  0  0  0  0
    0.0000    0.0000    0.0000 N   0  0  0  0  0  0  0  0  0  0  0  0
    0.0000    0.0000    0.0000 C   0  0  0  0  0  0  0  0  0  0  0  0
    0.0000    0.0000    0.0000 C   0  0  0  0  0  0  0  0  0  0  0  0
    0.0000    0.0000    0.0000 C   0  0  0  0  0  0  0  0  0  0  0  0
    0.0000    0.0000    0.0000 N   0  0  0  0  0  0  0  0  0  0  0  0
    0.0000    0.0000    0.0000 C   0  0  0  0  0  0  0  0  0  0  0  0
    0.0000    0.0000    0.0000 C   0  0  0  0  0  0  0  0  0  0  0  0
    0.0000    0.0000    0.0000 C   0  0  0  0  0  0  0  0  0  0  0  0
    0.0000    0.0000    0.0000 C   0  0  0  0  0  0  0  0  0  0  0  0
    0.0000    0.0000    0.0000 C   0  0  0  0  0  0  0  0  0  0  0  0
    0.0000    0.0000    0.0000 C   0  0  0  0  0  0  0  0  0  0  0  0
    0.0000    0.0000    0.0000 C   0  0  0  0  0  0  0  0  0  0  0  0
    0.0000    0.0000    0.0000 O   0  0  0  0  0  0  0  0  0  0  0  0
    0.0000    0.0000    0.0000 N   0  0  0  0  0  0  0  0  0  0  0  0
    0.0000    0.0000    0.0000 C   0  0  0  0  0  0  0  0  0  0  0  0
    0.0000    0.0000    0.0000 C   0  0  0  0  0  0  0  0  0  0  0  0
    0.0000    0.0000    0.0000 C   0  0  0  0  0  0  0  0  0  0  0  0
    0.0000    0.0000    0.0000 C   0  0  0  0  0  0  0  0  0  0  0  0
    0.0000    0.0000    0.0000 O   0  0  0  0  0  0  0  0  0  0  0  0
    0.0000    0.0000    0.0000 O   0  0  0  0  0  0  0  0  0  0  0  0
    0.0000    0.0000    0.0000 C   0  0  0  0  0  0  0  0  0  0  0  0
    0.0000    0.0000    0.0000 O   0  0  0  0  0  0  0  0  0  0  0  0
    0.0000    0.0000    0.0000 O   0  0  0  0  0  0  0  0  0  0  0  0
    0.0000    0.0000    0.0000 N   0  0  0  0  0  0  0  0  0  0  0  0
    0.0000    0.0000    0.0000 C   0  0  0  0  0  0  0  0  0  0  0  0
  1  2  1  0
  2  3  2  0
  3  4  1  0
  4  5  2  0
  5  6  1  0
  6  7  2  0
  7  8  1  0
  8  9  2  0
  9 10  1  0
 10 11  1  0
 11 12  1  0
 12 13  2  0
 13 14  1  0
 14 15  2  0
 15 16  1  0
 16 17  2  0
 15 18  1  0
 18 19  2  0
 18 20  1  0
 20 21  1  0
 21 22  1  0
 22 23  1  0
 23 24  1  0
 24 25  2  0
 24 26  1  0
 21 27  1  0
 27 28  2  0
 27 29  1  0
  9 30  1  0
 30 31  2  0
 31  2  1  0
 31  6  1  0
 17 12  1  0
M  END
>  <pIC50>  (25) 
4.72

>  <ChEMBL_ID>  (25) 
CHEMBL430797

>  <document_journal>  (25) 
J. Med. Chem.

>  <bao_endpoint>  (25) 
BAO_0000190

>  <potential_duplicate>  (25) 
False

>  <uo_units>  (25) 
UO_0000065

>  <canonical_smiles>  (25) 
Nc1ncnc2ncc(CNc3ccc(cc3)C(=O)NC(CCC(=O)O)C(=O)O)nc12

>  <parent_molecule_chembl_id>  (25) 
CHEMBL430797

>  <assay_type>  (25) 
B

>  <src_id>  (25) 
1

>  <ligand_efficiency>  (25) 
{u'le': u'0.21', u'bei': u'11.1', u'sei': u'2.44', u'lle': u'4.73'}

>  <standard_flag>  (25) 
True

>  <molecule_chembl_id>  (25) 
CHEMBL430797

>  <target_organism>  (25) 
Homo sapiens

>  <standard_units>  (25) 
nM

>  <record_id>  (25) 
290883

>  <document_chembl_id>  (25) 
CHEMBL1124406

>  <bao_format>  (25) 
BAO_0000019

>  <data_validity_description>  (25) 
None

>  <activity_id>  (25) 
203133

>  <standard_type>  (25) 
IC50

>  <target_chembl_id>  (25) 
CHEMBL202

>  <data_validity_comment>  (25) 
None

>  <published_value>  (25) 
19

>  <document_year>  (25) 
1989

>  <target_pref_name>  (25) 
Dihydrofolate reductase

>  <assay_chembl_id>  (25) 
CHEMBL668427

>  <standard_relation>  (25) 
=

>  <assay_description>  (25) 
Compound was tested for its inhibitory activity against dihydrofolate reductase (DHFR), isolated from MTX-resistant WI-L2 cells

>  <published_relation>  (25) 
=

>  <standard_value>  (25) 
19000

>  <qudt_units>  (25) 
http://www.openphacts.org/units/Nanomolar

>  <target_tax_id>  (25) 
9606

>  <bao_label>  (25) 
assay format

>  <published_units>  (25) 
uM

>  <pchembl_value>  (25) 
4.72

>  <published_type>  (25) 
IC50

>  <activity_comment>  (25) 
None

$$$$

     RDKit          

 23 25  0  0  0  0  0  0  0  0999 V2000
    0.0000    0.0000    0.0000 C   0  0  0  0  0  0  0  0  0  0  0  0
    0.0000    0.0000    0.0000 O   0  0  0  0  0  0  0  0  0  0  0  0
    0.0000    0.0000    0.0000 C   0  0  0  0  0  0  0  0  0  0  0  0
    0.0000    0.0000    0.0000 C   0  0  0  0  0  0  0  0  0  0  0  0
    0.0000    0.0000    0.0000 C   0  0  0  0  0  0  0  0  0  0  0  0
    0.0000    0.0000    0.0000 C   0  0  0  0  0  0  0  0  0  0  0  0
    0.0000    0.0000    0.0000 O   0  0  0  0  0  0  0  0  0  0  0  0
    0.0000    0.0000    0.0000 C   0  0  0  0  0  0  0  0  0  0  0  0
    0.0000    0.0000    0.0000 C   0  0  0  0  0  0  0  0  0  0  0  0
    0.0000    0.0000    0.0000 C   0  0  0  0  0  0  0  0  0  0  0  0
    0.0000    0.0000    0.0000 C   0  0  0  0  0  0  0  0  0  0  0  0
    0.0000    0.0000    0.0000 S   0  0  0  0  0  0  0  0  0  0  0  0
    0.0000    0.0000    0.0000 C   0  0  0  0  0  0  0  0  0  0  0  0
    0.0000    0.0000    0.0000 N   0  0  0  0  0  0  0  0  0  0  0  0
    0.0000    0.0000    0.0000 C   0  0  0  0  0  0  0  0  0  0  0  0
    0.0000    0.0000    0.0000 N   0  0  0  0  0  0  0  0  0  0  0  0
    0.0000    0.0000    0.0000 N   0  0  0  0  0  0  0  0  0  0  0  0
    0.0000    0.0000    0.0000 C   0  0  0  0  0  0  0  0  0  0  0  0
    0.0000    0.0000    0.0000 N   0  0  0  0  0  0  0  0  0  0  0  0
    0.0000    0.0000    0.0000 C   0  0  0  0  0  0  0  0  0  0  0  0
    0.0000    0.0000    0.0000 C   0  0  0  0  0  0  0  0  0  0  0  0
    0.0000    0.0000    0.0000 C   0  0  0  0  0  0  0  0  0  0  0  0
    0.0000    0.0000    0.0000 C   0  0  0  0  0  0  0  0  0  0  0  0
  1  2  1  0
  2  3  1  0
  3  4  2  0
  4  5  1  0
  5  6  2  0
  6  7  1  0
  7  8  1  0
  6  9  1  0
  9 10  1  0
 10 11  1  0
 11 12  1  0
 12 13  1  0
 13 14  2  0
 14 15  1  0
 15 16  1  0
 15 17  2  0
 17 18  1  0
 18 19  1  0
 18 20  2  0
 20 21  1  0
 21 22  1  0
  9 23  2  0
 23  3  1  0
 21 11  2  0
 20 13  1  0
M  END
>  <pIC50>  (26) 
6.14

>  <ChEMBL_ID>  (26) 
CHEMBL104787

>  <document_journal>  (26) 
J. Med. Chem.

>  <bao_endpoint>  (26) 
BAO_0000190

>  <potential_duplicate>  (26) 
False

>  <uo_units>  (26) 
UO_0000065

>  <canonical_smiles>  (26) 
COc1ccc(OC)c(Cc2sc3nc(N)nc(N)c3c2C)c1

>  <parent_molecule_chembl_id>  (26) 
CHEMBL104787

>  <assay_type>  (26) 
B

>  <src_id>  (26) 
1

>  <ligand_efficiency>  (26) 
{u'le': u'0.36', u'bei': u'18.57', u'sei': u'4.93', u'lle': u'3.16'}

>  <standard_flag>  (26) 
True

>  <molecule_chembl_id>  (26) 
CHEMBL104787

>  <target_organism>  (26) 
Homo sapiens

>  <standard_units>  (26) 
nM

>  <record_id>  (26) 
197546

>  <document_chembl_id>  (26) 
CHEMBL1126852

>  <bao_format>  (26) 
BAO_0000357

>  <data_validity_description>  (26) 
None

>  <activity_id>  (26) 
209785

>  <standard_type>  (26) 
IC50

>  <target_chembl_id>  (26) 
CHEMBL202

>  <data_validity_comment>  (26) 
None

>  <published_value>  (26) 
0.73

>  <document_year>  (26) 
1993

>  <target_pref_name>  (26) 
Dihydrofolate reductase

>  <assay_chembl_id>  (26) 
CHEMBL668085

>  <standard_relation>  (26) 
=

>  <assay_description>  (26) 
Tested for inhibitory activity against dihydrofolate reductase in human

>  <published_relation>  (26) 
=

>  <standard_value>  (26) 
730

>  <qudt_units>  (26) 
http://www.openphacts.org/units/Nanomolar

>  <target_tax_id>  (26) 
9606

>  <bao_label>  (26) 
single protein format

>  <published_units>  (26) 
uM

>  <pchembl_value>  (26) 
6.14

>  <published_type>  (26) 
IC50

>  <activity_comment>  (26) 
None

$$$$

     RDKit          

 31 33  0  0  0  0  0  0  0  0999 V2000
    0.0000    0.0000    0.0000 O   0  0  0  0  0  0  0  0  0  0  0  0
    0.0000    0.0000    0.0000 C   0  0  0  0  0  0  0  0  0  0  0  0
    0.0000    0.0000    0.0000 N   0  0  0  0  0  0  0  0  0  0  0  0
    0.0000    0.0000    0.0000 C   0  0  0  0  0  0  0  0  0  0  0  0
    0.0000    0.0000    0.0000 C   0  0  0  0  0  0  0  0  0  0  0  0
    0.0000    0.0000    0.0000 C   0  0  0  0  0  0  0  0  0  0  0  0
    0.0000    0.0000    0.0000 C   0  0  0  0  0  0  0  0  0  0  0  0
    0.0000    0.0000    0.0000 N   0  0  0  0  0  0  0  0  0  0  0  0
    0.0000    0.0000    0.0000 N   0  0  0  0  0  0  0  0  0  0  0  0
    0.0000    0.0000    0.0000 C   0  0  0  0  0  0  0  0  0  0  0  0
    0.0000    0.0000    0.0000 C   0  0  0  0  0  0  0  0  0  0  0  0
    0.0000    0.0000    0.0000 C   0  0  0  0  0  0  0  0  0  0  0  0
    0.0000    0.0000    0.0000 N   0  0  0  0  0  0  0  0  0  0  0  0
    0.0000    0.0000    0.0000 N   0  0  0  0  0  0  0  0  0  0  0  0
    0.0000    0.0000    0.0000 C   0  0  0  0  0  0  0  0  0  0  0  0
    0.0000    0.0000    0.0000 C   0  0  0  0  0  0  0  0  0  0  0  0
    0.0000    0.0000    0.0000 C   0  0  0  0  0  0  0  0  0  0  0  0
    0.0000    0.0000    0.0000 C   0  0  0  0  0  0  0  0  0  0  0  0
    0.0000    0.0000    0.0000 C   0  0  0  0  0  0  0  0  0  0  0  0
    0.0000    0.0000    0.0000 C   0  0  0  0  0  0  0  0  0  0  0  0
    0.0000    0.0000    0.0000 C   0  0  0  0  0  0  0  0  0  0  0  0
    0.0000    0.0000    0.0000 N   0  0  0  0  0  0  0  0  0  0  0  0
    0.0000    0.0000    0.0000 O   0  0  0  0  0  0  0  0  0  0  0  0
    0.0000    0.0000    0.0000 C   0  0  0  0  0  0  0  0  0  0  0  0
    0.0000    0.0000    0.0000 C   0  0  0  0  0  0  0  0  0  0  0  0
    0.0000    0.0000    0.0000 C   0  0  0  0  0  0  0  0  0  0  0  0
    0.0000    0.0000    0.0000 C   0  0  0  0  0  0  0  0  0  0  0  0
    0.0000    0.0000    0.0000 O   0  0  0  0  0  0  0  0  0  0  0  0
    0.0000    0.0000    0.0000 O   0  0  0  0  0  0  0  0  0  0  0  0
    0.0000    0.0000    0.0000 C   0  0  0  0  0  0  0  0  0  0  0  0
    0.0000    0.0000    0.0000 N   0  0  0  0  0  0  0  0  0  0  0  0
  1  2  2  0
  2  3  1  0
  2  4  1  0
  4  5  1  0
  4  6  2  0
  5  7  1  0
  8  6  1  0
  6  9  1  0
 10  7  1  0
  7 11  1  0
 11  8  1  0
  9 12  2  0
 13 10  1  0
 12 14  1  0
 12  3  1  0
 15 13  1  0
 16 15  2  0
 15 17  1  0
 18 16  1  0
 17 19  2  0
 20 18  2  0
 19 20  1  0
 21 20  1  0
 22 21  1  0
 21 23  2  0
 24 22  1  0
 25 24  1  0
 24 26  1  0
 27 25  1  0
 26 28  2  0
 26 29  1  0
 30 27  1  0
 31 30  1  0
M  END
>  <pIC50>  (27) 
5.7

>  <ChEMBL_ID>  (27) 
CHEMBL289923

>  <document_journal>  (27) 
J. Med. Chem.

>  <bao_endpoint>  (27) 
BAO_0000190

>  <potential_duplicate>  (27) 
False

>  <uo_units>  (27) 
UO_0000065

>  <canonical_smiles>  (27) 
NCCCC(NC(=O)c1ccc(NCC2CNc3nc(N)nc(O)c3C2)cc1)C(=O)O

>  <parent_molecule_chembl_id>  (27) 
CHEMBL289923

>  <assay_type>  (27) 
B

>  <src_id>  (27) 
1

>  <ligand_efficiency>  (27) 
{u'le': u'0.25', u'bei': u'13.27', u'sei': u'3.02', u'lle': u'7.44'}

>  <standard_flag>  (27) 
True

>  <molecule_chembl_id>  (27) 
CHEMBL289923

>  <target_organism>  (27) 
Homo sapiens

>  <standard_units>  (27) 
nM

>  <record_id>  (27) 
105786

>  <document_chembl_id>  (27) 
CHEMBL1126177

>  <bao_format>  (27) 
BAO_0000357

>  <data_validity_description>  (27) 
None

>  <activity_id>  (27) 
210223

>  <standard_type>  (27) 
IC50

>  <target_chembl_id>  (27) 
CHEMBL202

>  <data_validity_comment>  (27) 
None

>  <published_value>  (27) 
2

>  <document_year>  (27) 
1992

>  <target_pref_name>  (27) 
Dihydrofolate reductase

>  <assay_chembl_id>  (27) 
CHEMBL669278

>  <standard_relation>  (27) 
=

>  <assay_description>  (27) 
Compound was evaluated for the inhibition of dihydrofolate reductase obtained from human

>  <published_relation>  (27) 
=

>  <standard_value>  (27) 
2000

>  <qudt_units>  (27) 
http://www.openphacts.org/units/Nanomolar

>  <target_tax_id>  (27) 
9606

>  <bao_label>  (27) 
single protein format

>  <published_units>  (27) 
uM

>  <pchembl_value>  (27) 
5.7

>  <published_type>  (27) 
I50

>  <activity_comment>  (27) 
None

$$$$

     RDKit          

 22 24  0  0  0  0  0  0  0  0999 V2000
    0.0000    0.0000    0.0000 C   0  0  0  0  0  0  0  0  0  0  0  0
    0.0000    0.0000    0.0000 O   0  0  0  0  0  0  0  0  0  0  0  0
    0.0000    0.0000    0.0000 C   0  0  0  0  0  0  0  0  0  0  0  0
    0.0000    0.0000    0.0000 C   0  0  0  0  0  0  0  0  0  0  0  0
    0.0000    0.0000    0.0000 C   0  0  0  0  0  0  0  0  0  0  0  0
    0.0000    0.0000    0.0000 C   0  0  0  0  0  0  0  0  0  0  0  0
    0.0000    0.0000    0.0000 O   0  0  0  0  0  0  0  0  0  0  0  0
    0.0000    0.0000    0.0000 C   0  0  0  0  0  0  0  0  0  0  0  0
    0.0000    0.0000    0.0000 C   0  0  0  0  0  0  0  0  0  0  0  0
    0.0000    0.0000    0.0000 C   0  0  0  0  0  0  0  0  0  0  0  0
    0.0000    0.0000    0.0000 C   0  0  0  0  0  0  0  0  0  0  0  0
    0.0000    0.0000    0.0000 S   0  0  0  0  0  0  0  0  0  0  0  0
    0.0000    0.0000    0.0000 C   0  0  0  0  0  0  0  0  0  0  0  0
    0.0000    0.0000    0.0000 N   0  0  0  0  0  0  0  0  0  0  0  0
    0.0000    0.0000    0.0000 C   0  0  0  0  0  0  0  0  0  0  0  0
    0.0000    0.0000    0.0000 N   0  0  0  0  0  0  0  0  0  0  0  0
    0.0000    0.0000    0.0000 N   0  0  0  0  0  0  0  0  0  0  0  0
    0.0000    0.0000    0.0000 C   0  0  0  0  0  0  0  0  0  0  0  0
    0.0000    0.0000    0.0000 N   0  0  0  0  0  0  0  0  0  0  0  0
    0.0000    0.0000    0.0000 C   0  0  0  0  0  0  0  0  0  0  0  0
    0.0000    0.0000    0.0000 C   0  0  0  0  0  0  0  0  0  0  0  0
    0.0000    0.0000    0.0000 C   0  0  0  0  0  0  0  0  0  0  0  0
  1  2  1  0
  2  3  1  0
  3  4  2  0
  4  5  1  0
  5  6  2  0
  6  7  1  0
  7  8  1  0
  6  9  1  0
  9 10  2  0
  9 11  1  0
 11 12  1  0
 12 13  1  0
 13 14  2  0
 14 15  1  0
 15 16  1  0
 15 17  2  0
 17 18  1  0
 18 19  1  0
 18 20  2  0
 20 21  1  0
 21 22  1  0
 10  3  1  0
 21 11  2  0
 20 13  1  0
M  END
>  <pIC50>  (28) 
6.13

>  <ChEMBL_ID>  (28) 
CHEMBL323960

>  <document_journal>  (28) 
J. Med. Chem.

>  <bao_endpoint>  (28) 
BAO_0000190

>  <potential_duplicate>  (28) 
False

>  <uo_units>  (28) 
UO_0000065

>  <canonical_smiles>  (28) 
COc1ccc(OC)c(c1)c2sc3nc(N)nc(N)c3c2C

>  <parent_molecule_chembl_id>  (28) 
CHEMBL323960

>  <assay_type>  (28) 
B

>  <src_id>  (28) 
1

>  <ligand_efficiency>  (28) 
{u'le': u'0.38', u'bei': u'19.36', u'sei': u'4.92', u'lle': u'3.18'}

>  <standard_flag>  (28) 
True

>  <molecule_chembl_id>  (28) 
CHEMBL323960

>  <target_organism>  (28) 
Homo sapiens

>  <standard_units>  (28) 
nM

>  <record_id>  (28) 
197527

>  <document_chembl_id>  (28) 
CHEMBL1126852

>  <bao_format>  (28) 
BAO_0000357

>  <data_validity_description>  (28) 
None

>  <activity_id>  (28) 
214413

>  <standard_type>  (28) 
IC50

>  <target_chembl_id>  (28) 
CHEMBL202

>  <data_validity_comment>  (28) 
None

>  <published_value>  (28) 
0.75

>  <document_year>  (28) 
1993

>  <target_pref_name>  (28) 
Dihydrofolate reductase

>  <assay_chembl_id>  (28) 
CHEMBL668085

>  <standard_relation>  (28) 
=

>  <assay_description>  (28) 
Tested for inhibitory activity against dihydrofolate reductase in human

>  <published_relation>  (28) 
=

>  <standard_value>  (28) 
750

>  <qudt_units>  (28) 
http://www.openphacts.org/units/Nanomolar

>  <target_tax_id>  (28) 
9606

>  <bao_label>  (28) 
single protein format

>  <published_units>  (28) 
uM

>  <pchembl_value>  (28) 
6.13

>  <published_type>  (28) 
IC50

>  <activity_comment>  (28) 
None

$$$$

     RDKit          

 34 36  0  0  0  0  0  0  0  0999 V2000
    0.0000    0.0000    0.0000 C   0  0  0  0  0  0  0  0  0  0  0  0
    0.0000    0.0000    0.0000 N   0  0  0  0  0  0  0  0  0  0  0  0
    0.0000    0.0000    0.0000 C   0  0  0  0  0  0  0  0  0  0  0  0
    0.0000    0.0000    0.0000 C   0  0  0  0  0  0  0  0  0  0  0  0
    0.0000    0.0000    0.0000 C   0  0  0  0  0  0  0  0  0  0  0  0
    0.0000    0.0000    0.0000 N   0  0  0  0  0  0  0  0  0  0  0  0
    0.0000    0.0000    0.0000 C   0  0  0  0  0  0  0  0  0  0  0  0
    0.0000    0.0000    0.0000 N   0  0  0  0  0  0  0  0  0  0  0  0
    0.0000    0.0000    0.0000 C   0  0  0  0  0  0  0  0  0  0  0  0
    0.0000    0.0000    0.0000 N   0  0  0  0  0  0  0  0  0  0  0  0
    0.0000    0.0000    0.0000 N   0  0  0  0  0  0  0  0  0  0  0  0
    0.0000    0.0000    0.0000 C   0  0  0  0  0  0  0  0  0  0  0  0
    0.0000    0.0000    0.0000 N   0  0  0  0  0  0  0  0  0  0  0  0
    0.0000    0.0000    0.0000 C   0  0  0  0  0  0  0  0  0  0  0  0
    0.0000    0.0000    0.0000 N   0  0  0  0  0  0  0  0  0  0  0  0
    0.0000    0.0000    0.0000 C   0  0  0  0  0  0  0  0  0  0  0  0
    0.0000    0.0000    0.0000 C   0  0  0  0  0  0  0  0  0  0  0  0
    0.0000    0.0000    0.0000 C   0  0  0  0  0  0  0  0  0  0  0  0
    0.0000    0.0000    0.0000 C   0  0  0  0  0  0  0  0  0  0  0  0
    0.0000    0.0000    0.0000 C   0  0  0  0  0  0  0  0  0  0  0  0
    0.0000    0.0000    0.0000 C   0  0  0  0  0  0  0  0  0  0  0  0
    0.0000    0.0000    0.0000 C   0  0  0  0  0  0  0  0  0  0  0  0
    0.0000    0.0000    0.0000 O   0  0  0  0  0  0  0  0  0  0  0  0
    0.0000    0.0000    0.0000 N   0  0  0  0  0  0  0  0  0  0  0  0
    0.0000    0.0000    0.0000 C   0  0  0  0  0  0  0  0  0  0  0  0
    0.0000    0.0000    0.0000 C   0  0  0  0  0  0  0  0  0  0  0  0
    0.0000    0.0000    0.0000 C   0  0  0  0  0  0  0  0  0  0  0  0
    0.0000    0.0000    0.0000 C   0  0  0  0  0  0  0  0  0  0  0  0
    0.0000    0.0000    0.0000 C   0  0  0  0  0  0  0  0  0  0  0  0
    0.0000    0.0000    0.0000 O   0  0  0  0  0  0  0  0  0  0  0  0
    0.0000    0.0000    0.0000 O   0  0  0  0  0  0  0  0  0  0  0  0
    0.0000    0.0000    0.0000 C   0  0  0  0  0  0  0  0  0  0  0  0
    0.0000    0.0000    0.0000 O   0  0  0  0  0  0  0  0  0  0  0  0
    0.0000    0.0000    0.0000 O   0  0  0  0  0  0  0  0  0  0  0  0
  1  2  1  0
  2  3  1  0
  3  4  1  0
  4  5  2  0
  5  6  1  0
  6  7  2  0
  7  8  1  0
  8  9  2  0
  9 10  1  0
  9 11  1  0
 11 12  2  0
 12 13  1  0
 12 14  1  0
 14 15  2  0
  2 16  1  0
 16 17  2  0
 17 18  1  0
 18 19  2  0
 19 20  1  0
 20 21  2  0
 19 22  1  0
 22 23  2  0
 22 24  1  0
 24 25  1  0
 25 26  1  0
 26 27  1  0
 27 28  2  0
 27 29  1  0
 29 30  2  0
 29 31  1  0
 25 32  1  0
 32 33  2  0
 32 34  1  0
 15  4  1  0
 14  7  1  0
 21 16  1  0
M  END
>  <pIC50>  (29) 
7.775

>  <ChEMBL_ID>  (29) 
CHEMBL65616

>  <document_journal>  (29) 
J. Med. Chem.

>  <bao_endpoint>  (29) 
BAO_0000190

>  <potential_duplicate>  (29) 
False

>  <uo_units>  (29) 
UO_0000065

>  <canonical_smiles>  (29) 
CN(Cc1cnc2nc(N)nc(N)c2n1)c3ccc(cc3)C(=O)NC(CC(=C)C(=O)O)C(=O)O

>  <parent_molecule_chembl_id>  (29) 
CHEMBL65616

>  <assay_type>  (29) 
B

>  <src_id>  (29) 
1

>  <ligand_efficiency>  (29) 
{u'le': u'0.33', u'bei': u'17.57', u'sei': u'3.89', u'lle': u'7.6'}

>  <standard_flag>  (29) 
True

>  <molecule_chembl_id>  (29) 
CHEMBL65616

>  <target_organism>  (29) 
Homo sapiens

>  <standard_units>  (29) 
nM

>  <record_id>  (29) 
130283

>  <document_chembl_id>  (29) 
CHEMBL1125907

>  <bao_format>  (29) 
BAO_0000357

>  <data_validity_description>  (29) 
None

>  <activity_id>  (29) 
226132

>  <standard_type>  (29) 
IC50

>  <target_chembl_id>  (29) 
CHEMBL202

>  <data_validity_comment>  (29) 
None

>  <published_value>  (29) 
6.4

>  <document_year>  (29) 
1991

>  <target_pref_name>  (29) 
Dihydrofolate reductase

>  <assay_chembl_id>  (29) 
CHEMBL668094

>  <standard_relation>  (29) 
=

>  <assay_description>  (29) 
Compound was tested for its inhibitory activity on Recombinant Human Dihydrofolate Reductase.

>  <published_relation>  (29) 
=

>  <standard_value>  (29) 
6.4

>  <qudt_units>  (29) 
http://www.openphacts.org/units/Nanomolar

>  <target_tax_id>  (29) 
9606

>  <bao_label>  (29) 
single protein format

>  <published_units>  (29) 
nM

>  <pchembl_value>  (29) 
8.19

>  <published_type>  (29) 
IC50

>  <activity_comment>  (29) 
None

$$$$

     RDKit          

 33 35  0  0  0  0  0  0  0  0999 V2000
    0.0000    0.0000    0.0000 N   0  0  0  0  0  0  0  0  0  0  0  0
    0.0000    0.0000    0.0000 C   0  0  0  0  0  0  0  0  0  0  0  0
    0.0000    0.0000    0.0000 N   0  0  0  0  0  0  0  0  0  0  0  0
    0.0000    0.0000    0.0000 C   0  0  0  0  0  0  0  0  0  0  0  0
    0.0000    0.0000    0.0000 N   0  0  0  0  0  0  0  0  0  0  0  0
    0.0000    0.0000    0.0000 C   0  0  0  0  0  0  0  0  0  0  0  0
    0.0000    0.0000    0.0000 N   0  0  0  0  0  0  0  0  0  0  0  0
    0.0000    0.0000    0.0000 C   0  0  0  0  0  0  0  0  0  0  0  0
    0.0000    0.0000    0.0000 C   0  0  0  0  0  0  0  0  0  0  0  0
    0.0000    0.0000    0.0000 C   0  0  0  0  0  0  0  0  0  0  0  0
    0.0000    0.0000    0.0000 C   0  0  0  0  0  0  0  0  0  0  0  0
    0.0000    0.0000    0.0000 C   0  0  0  0  0  0  0  0  0  0  0  0
    0.0000    0.0000    0.0000 C   0  0  0  0  0  0  0  0  0  0  0  0
    0.0000    0.0000    0.0000 C   0  0  0  0  0  0  0  0  0  0  0  0
    0.0000    0.0000    0.0000 C   0  0  0  0  0  0  0  0  0  0  0  0
    0.0000    0.0000    0.0000 C   0  0  0  0  0  0  0  0  0  0  0  0
    0.0000    0.0000    0.0000 C   0  0  0  0  0  0  0  0  0  0  0  0
    0.0000    0.0000    0.0000 O   0  0  0  0  0  0  0  0  0  0  0  0
    0.0000    0.0000    0.0000 N   0  0  0  0  0  0  0  0  0  0  0  0
    0.0000    0.0000    0.0000 C   0  0  0  0  0  0  0  0  0  0  0  0
    0.0000    0.0000    0.0000 C   0  0  0  0  0  0  0  0  0  0  0  0
    0.0000    0.0000    0.0000 O   0  0  0  0  0  0  0  0  0  0  0  0
    0.0000    0.0000    0.0000 C   0  0  0  0  0  0  0  0  0  0  0  0
    0.0000    0.0000    0.0000 C   0  0  0  0  0  0  0  0  0  0  0  0
    0.0000    0.0000    0.0000 O   0  0  0  0  0  0  0  0  0  0  0  0
    0.0000    0.0000    0.0000 O   0  0  0  0  0  0  0  0  0  0  0  0
    0.0000    0.0000    0.0000 C   0  0  0  0  0  0  0  0  0  0  0  0
    0.0000    0.0000    0.0000 O   0  0  0  0  0  0  0  0  0  0  0  0
    0.0000    0.0000    0.0000 O   0  0  0  0  0  0  0  0  0  0  0  0
    0.0000    0.0000    0.0000 C   0  0  0  0  0  0  0  0  0  0  0  0
    0.0000    0.0000    0.0000 N   0  0  0  0  0  0  0  0  0  0  0  0
    0.0000    0.0000    0.0000 C   0  0  0  0  0  0  0  0  0  0  0  0
    0.0000    0.0000    0.0000 N   0  0  0  0  0  0  0  0  0  0  0  0
  1  2  1  0
  2  3  2  0
  3  4  1  0
  4  5  1  0
  4  6  2  0
  6  7  1  0
  7  8  2  0
  8  9  1  0
  9 10  1  0
 10 11  1  0
 11 12  2  0
 12 13  1  0
 13 14  2  0
 14 15  1  0
 15 16  2  0
 14 17  1  0
 17 18  2  0
 17 19  1  0
 19 20  1  0
 20 21  1  0
 21 22  1  0
 21 23  1  0
 23 24  1  0
 24 25  2  0
 24 26  1  0
 20 27  1  0
 27 28  2  0
 27 29  1  0
  8 30  1  0
 30 31  2  0
 31 32  1  0
 32 33  2  0
 33  2  1  0
 32  6  1  0
 16 11  1  0
M  END
>  <pIC50>  (30) 
8.23

>  <ChEMBL_ID>  (30) 
CHEMBL73267

>  <document_journal>  (30) 
J. Med. Chem.

>  <bao_endpoint>  (30) 
BAO_0000190

>  <potential_duplicate>  (30) 
False

>  <uo_units>  (30) 
UO_0000065

>  <canonical_smiles>  (30) 
Nc1nc(N)c2nc(CCc3ccc(cc3)C(=O)NC(C(O)CC(=O)O)C(=O)O)cnc2n1

>  <parent_molecule_chembl_id>  (30) 
CHEMBL73267

>  <assay_type>  (30) 
B

>  <src_id>  (30) 
1

>  <ligand_efficiency>  (30) 
{u'le': u'0.34', u'bei': u'18.07', u'sei': u'3.62', u'lle': u'8.47'}

>  <standard_flag>  (30) 
True

>  <molecule_chembl_id>  (30) 
CHEMBL73267

>  <target_organism>  (30) 
Homo sapiens

>  <standard_units>  (30) 
nM

>  <record_id>  (30) 
130290

>  <document_chembl_id>  (30) 
CHEMBL1125907

>  <bao_format>  (30) 
BAO_0000357

>  <data_validity_description>  (30) 
None

>  <activity_id>  (30) 
232630

>  <standard_type>  (30) 
IC50

>  <target_chembl_id>  (30) 
CHEMBL202

>  <data_validity_comment>  (30) 
None

>  <published_value>  (30) 
5.9

>  <document_year>  (30) 
1991

>  <target_pref_name>  (30) 
Dihydrofolate reductase

>  <assay_chembl_id>  (30) 
CHEMBL668094

>  <standard_relation>  (30) 
=

>  <assay_description>  (30) 
Compound was tested for its inhibitory activity on Recombinant Human Dihydrofolate Reductase.

>  <published_relation>  (30) 
=

>  <standard_value>  (30) 
5.9

>  <qudt_units>  (30) 
http://www.openphacts.org/units/Nanomolar

>  <target_tax_id>  (30) 
9606

>  <bao_label>  (30) 
single protein format

>  <published_units>  (30) 
nM

>  <pchembl_value>  (30) 
8.23

>  <published_type>  (30) 
IC50

>  <activity_comment>  (30) 
None

$$$$

     RDKit          

 35 37  0  0  0  0  0  0  0  0999 V2000
    0.0000    0.0000    0.0000 C   0  0  0  0  0  0  0  0  0  0  0  0
    0.0000    0.0000    0.0000 C   0  0  0  0  0  0  0  0  0  0  0  0
    0.0000    0.0000    0.0000 C   0  0  0  0  0  0  0  0  0  0  0  0
    0.0000    0.0000    0.0000 C   0  0  0  0  0  0  0  0  0  0  0  0
    0.0000    0.0000    0.0000 C   0  0  0  0  0  0  0  0  0  0  0  0
    0.0000    0.0000    0.0000 C   0  0  0  0  0  0  0  0  0  0  0  0
    0.0000    0.0000    0.0000 N   0  0  0  0  0  0  0  0  0  0  0  0
    0.0000    0.0000    0.0000 C   0  0  0  0  0  0  0  0  0  0  0  0
    0.0000    0.0000    0.0000 N   0  0  0  0  0  0  0  0  0  0  0  0
    0.0000    0.0000    0.0000 C   0  0  0  0  0  0  0  0  0  0  0  0
    0.0000    0.0000    0.0000 N   0  0  0  0  0  0  0  0  0  0  0  0
    0.0000    0.0000    0.0000 N   0  0  0  0  0  0  0  0  0  0  0  0
    0.0000    0.0000    0.0000 C   0  0  0  0  0  0  0  0  0  0  0  0
    0.0000    0.0000    0.0000 N   0  0  0  0  0  0  0  0  0  0  0  0
    0.0000    0.0000    0.0000 C   0  0  0  0  0  0  0  0  0  0  0  0
    0.0000    0.0000    0.0000 N   0  0  0  0  0  0  0  0  0  0  0  0
    0.0000    0.0000    0.0000 C   0  0  0  0  0  0  0  0  0  0  0  0
    0.0000    0.0000    0.0000 C   0  0  0  0  0  0  0  0  0  0  0  0
    0.0000    0.0000    0.0000 C   0  0  0  0  0  0  0  0  0  0  0  0
    0.0000    0.0000    0.0000 C   0  0  0  0  0  0  0  0  0  0  0  0
    0.0000    0.0000    0.0000 C   0  0  0  0  0  0  0  0  0  0  0  0
    0.0000    0.0000    0.0000 C   0  0  0  0  0  0  0  0  0  0  0  0
    0.0000    0.0000    0.0000 C   0  0  0  0  0  0  0  0  0  0  0  0
    0.0000    0.0000    0.0000 O   0  0  0  0  0  0  0  0  0  0  0  0
    0.0000    0.0000    0.0000 N   0  0  0  0  0  0  0  0  0  0  0  0
    0.0000    0.0000    0.0000 C   0  0  0  0  0  0  0  0  0  0  0  0
    0.0000    0.0000    0.0000 C   0  0  0  0  0  0  0  0  0  0  0  0
    0.0000    0.0000    0.0000 C   0  0  0  0  0  0  0  0  0  0  0  0
    0.0000    0.0000    0.0000 C   0  0  0  0  0  0  0  0  0  0  0  0
    0.0000    0.0000    0.0000 C   0  0  0  0  0  0  0  0  0  0  0  0
    0.0000    0.0000    0.0000 O   0  0  0  0  0  0  0  0  0  0  0  0
    0.0000    0.0000    0.0000 O   0  0  0  0  0  0  0  0  0  0  0  0
    0.0000    0.0000    0.0000 C   0  0  0  0  0  0  0  0  0  0  0  0
    0.0000    0.0000    0.0000 O   0  0  0  0  0  0  0  0  0  0  0  0
    0.0000    0.0000    0.0000 O   0  0  0  0  0  0  0  0  0  0  0  0
  1  2  1  0
  2  3  1  0
  3  4  1  0
  4  5  1  0
  5  6  2  0
  6  7  1  0
  7  8  2  0
  8  9  1  0
  9 10  2  0
 10 11  1  0
 10 12  1  0
 12 13  2  0
 13 14  1  0
 13 15  1  0
 15 16  2  0
  3 17  1  0
 17 18  2  0
 18 19  1  0
 19 20  2  0
 20 21  1  0
 21 22  2  0
 20 23  1  0
 23 24  2  0
 23 25  1  0
 25 26  1  0
 26 27  1  0
 27 28  1  0
 28 29  2  0
 28 30  1  0
 30 31  2  0
 30 32  1  0
 26 33  1  0
 33 34  2  0
 33 35  1  0
 16  5  1  0
 15  8  1  0
 22 17  1  0
M  END
>  <pIC50>  (31) 
8.24

>  <ChEMBL_ID>  (31) 
CHEMBL308279

>  <document_journal>  (31) 
J. Med. Chem.

>  <bao_endpoint>  (31) 
BAO_0000190

>  <potential_duplicate>  (31) 
False

>  <uo_units>  (31) 
UO_0000065

>  <canonical_smiles>  (31) 
CCC(Cc1cnc2nc(N)nc(N)c2n1)c3ccc(cc3)C(=O)NC(CC(=C)C(=O)O)C(=O)O

>  <parent_molecule_chembl_id>  (31) 
CHEMBL308279

>  <assay_type>  (31) 
B

>  <src_id>  (31) 
1

>  <ligand_efficiency>  (31) 
{u'le': u'0.32', u'bei': u'17.18', u'sei': u'3.97', u'lle': u'6.46'}

>  <standard_flag>  (31) 
True

>  <molecule_chembl_id>  (31) 
CHEMBL308279

>  <target_organism>  (31) 
Homo sapiens

>  <standard_units>  (31) 
nM

>  <record_id>  (31) 
130284

>  <document_chembl_id>  (31) 
CHEMBL1125907

>  <bao_format>  (31) 
BAO_0000357

>  <data_validity_description>  (31) 
None

>  <activity_id>  (31) 
232635

>  <standard_type>  (31) 
IC50

>  <target_chembl_id>  (31) 
CHEMBL202

>  <data_validity_comment>  (31) 
None

>  <published_value>  (31) 
5.8

>  <document_year>  (31) 
1991

>  <target_pref_name>  (31) 
Dihydrofolate reductase

>  <assay_chembl_id>  (31) 
CHEMBL668094

>  <standard_relation>  (31) 
=

>  <assay_description>  (31) 
Compound was tested for its inhibitory activity on Recombinant Human Dihydrofolate Reductase.

>  <published_relation>  (31) 
=

>  <standard_value>  (31) 
5.8

>  <qudt_units>  (31) 
http://www.openphacts.org/units/Nanomolar

>  <target_tax_id>  (31) 
9606

>  <bao_label>  (31) 
single protein format

>  <published_units>  (31) 
nM

>  <pchembl_value>  (31) 
8.24

>  <published_type>  (31) 
IC50

>  <activity_comment>  (31) 
None

$$$$

     RDKit          

 34 36  0  0  0  0  0  0  0  0999 V2000
    0.0000    0.0000    0.0000 C   0  0  0  0  0  0  0  0  0  0  0  0
    0.0000    0.0000    0.0000 N   0  0  0  0  0  0  0  0  0  0  0  0
    0.0000    0.0000    0.0000 C   0  0  0  0  0  0  0  0  0  0  0  0
    0.0000    0.0000    0.0000 C   0  0  0  0  0  0  0  0  0  0  0  0
    0.0000    0.0000    0.0000 C   0  0  0  0  0  0  0  0  0  0  0  0
    0.0000    0.0000    0.0000 N   0  0  0  0  0  0  0  0  0  0  0  0
    0.0000    0.0000    0.0000 C   0  0  0  0  0  0  0  0  0  0  0  0
    0.0000    0.0000    0.0000 N   0  0  0  0  0  0  0  0  0  0  0  0
    0.0000    0.0000    0.0000 C   0  0  0  0  0  0  0  0  0  0  0  0
    0.0000    0.0000    0.0000 N   0  0  0  0  0  0  0  0  0  0  0  0
    0.0000    0.0000    0.0000 N   0  0  0  0  0  0  0  0  0  0  0  0
    0.0000    0.0000    0.0000 C   0  0  0  0  0  0  0  0  0  0  0  0
    0.0000    0.0000    0.0000 N   0  0  0  0  0  0  0  0  0  0  0  0
    0.0000    0.0000    0.0000 C   0  0  0  0  0  0  0  0  0  0  0  0
    0.0000    0.0000    0.0000 N   0  0  0  0  0  0  0  0  0  0  0  0
    0.0000    0.0000    0.0000 C   0  0  0  0  0  0  0  0  0  0  0  0
    0.0000    0.0000    0.0000 C   0  0  0  0  0  0  0  0  0  0  0  0
    0.0000    0.0000    0.0000 C   0  0  0  0  0  0  0  0  0  0  0  0
    0.0000    0.0000    0.0000 C   0  0  0  0  0  0  0  0  0  0  0  0
    0.0000    0.0000    0.0000 C   0  0  0  0  0  0  0  0  0  0  0  0
    0.0000    0.0000    0.0000 C   0  0  0  0  0  0  0  0  0  0  0  0
    0.0000    0.0000    0.0000 C   0  0  0  0  0  0  0  0  0  0  0  0
    0.0000    0.0000    0.0000 O   0  0  0  0  0  0  0  0  0  0  0  0
    0.0000    0.0000    0.0000 N   0  0  0  0  0  0  0  0  0  0  0  0
    0.0000    0.0000    0.0000 C   0  0  0  0  0  0  0  0  0  0  0  0
    0.0000    0.0000    0.0000 C   0  0  0  0  0  0  0  0  0  0  0  0
    0.0000    0.0000    0.0000 O   0  0  0  0  0  0  0  0  0  0  0  0
    0.0000    0.0000    0.0000 C   0  0  0  0  0  0  0  0  0  0  0  0
    0.0000    0.0000    0.0000 C   0  0  0  0  0  0  0  0  0  0  0  0
    0.0000    0.0000    0.0000 O   0  0  0  0  0  0  0  0  0  0  0  0
    0.0000    0.0000    0.0000 O   0  0  0  0  0  0  0  0  0  0  0  0
    0.0000    0.0000    0.0000 C   0  0  0  0  0  0  0  0  0  0  0  0
    0.0000    0.0000    0.0000 O   0  0  0  0  0  0  0  0  0  0  0  0
    0.0000    0.0000    0.0000 O   0  0  0  0  0  0  0  0  0  0  0  0
  1  2  1  0
  2  3  1  0
  3  4  1  0
  4  5  2  0
  5  6  1  0
  6  7  2  0
  7  8  1  0
  8  9  2  0
  9 10  1  0
  9 11  1  0
 11 12  2  0
 12 13  1  0
 12 14  1  0
 14 15  2  0
  2 16  1  0
 16 17  2  0
 17 18  1  0
 18 19  2  0
 19 20  1  0
 20 21  2  0
 19 22  1  0
 22 23  2  0
 22 24  1  0
 24 25  1  0
 25 26  1  0
 26 27  1  0
 26 28  1  0
 28 29  1  0
 29 30  2  0
 29 31  1  0
 25 32  1  0
 32 33  2  0
 32 34  1  0
 15  4  1  0
 14  7  1  0
 21 16  1  0
M  END
>  <pIC50>  (32) 
8.28

>  <ChEMBL_ID>  (32) 
CHEMBL307820

>  <document_journal>  (32) 
J. Med. Chem.

>  <bao_endpoint>  (32) 
BAO_0000190

>  <potential_duplicate>  (32) 
False

>  <uo_units>  (32) 
UO_0000065

>  <canonical_smiles>  (32) 
CN(Cc1cnc2nc(N)nc(N)c2n1)c3ccc(cc3)C(=O)NC(C(O)CC(=O)O)C(=O)O

>  <parent_molecule_chembl_id>  (32) 
CHEMBL307820

>  <assay_type>  (32) 
B

>  <src_id>  (32) 
1

>  <ligand_efficiency>  (32) 
{u'le': u'0.33', u'bei': u'17.59', u'sei': u'3.59', u'lle': u'9'}

>  <standard_flag>  (32) 
True

>  <molecule_chembl_id>  (32) 
CHEMBL307820

>  <target_organism>  (32) 
Homo sapiens

>  <standard_units>  (32) 
nM

>  <record_id>  (32) 
130282

>  <document_chembl_id>  (32) 
CHEMBL1125907

>  <bao_format>  (32) 
BAO_0000357

>  <data_validity_description>  (32) 
None

>  <activity_id>  (32) 
244373

>  <standard_type>  (32) 
IC50

>  <target_chembl_id>  (32) 
CHEMBL202

>  <data_validity_comment>  (32) 
None

>  <published_value>  (32) 
5.3

>  <document_year>  (32) 
1991

>  <target_pref_name>  (32) 
Dihydrofolate reductase

>  <assay_chembl_id>  (32) 
CHEMBL668094

>  <standard_relation>  (32) 
=

>  <assay_description>  (32) 
Compound was tested for its inhibitory activity on Recombinant Human Dihydrofolate Reductase.

>  <published_relation>  (32) 
=

>  <standard_value>  (32) 
5.3

>  <qudt_units>  (32) 
http://www.openphacts.org/units/Nanomolar

>  <target_tax_id>  (32) 
9606

>  <bao_label>  (32) 
single protein format

>  <published_units>  (32) 
nM

>  <pchembl_value>  (32) 
8.28

>  <published_type>  (32) 
IC50

>  <activity_comment>  (32) 
None

$$$$

     RDKit          

 33 35  0  0  0  0  0  0  0  0999 V2000
    0.0000    0.0000    0.0000 N   0  0  0  0  0  0  0  0  0  0  0  0
    0.0000    0.0000    0.0000 C   0  0  0  0  0  0  0  0  0  0  0  0
    0.0000    0.0000    0.0000 N   0  0  0  0  0  0  0  0  0  0  0  0
    0.0000    0.0000    0.0000 C   0  0  0  0  0  0  0  0  0  0  0  0
    0.0000    0.0000    0.0000 N   0  0  0  0  0  0  0  0  0  0  0  0
    0.0000    0.0000    0.0000 C   0  0  0  0  0  0  0  0  0  0  0  0
    0.0000    0.0000    0.0000 N   0  0  0  0  0  0  0  0  0  0  0  0
    0.0000    0.0000    0.0000 C   0  0  0  0  0  0  0  0  0  0  0  0
    0.0000    0.0000    0.0000 C   0  0  0  0  0  0  0  0  0  0  0  0
    0.0000    0.0000    0.0000 C   0  0  0  0  0  0  0  0  0  0  0  0
    0.0000    0.0000    0.0000 C   0  0  0  0  0  0  0  0  0  0  0  0
    0.0000    0.0000    0.0000 C   0  0  0  0  0  0  0  0  0  0  0  0
    0.0000    0.0000    0.0000 C   0  0  0  0  0  0  0  0  0  0  0  0
    0.0000    0.0000    0.0000 C   0  0  0  0  0  0  0  0  0  0  0  0
    0.0000    0.0000    0.0000 C   0  0  0  0  0  0  0  0  0  0  0  0
    0.0000    0.0000    0.0000 C   0  0  0  0  0  0  0  0  0  0  0  0
    0.0000    0.0000    0.0000 C   0  0  0  0  0  0  0  0  0  0  0  0
    0.0000    0.0000    0.0000 O   0  0  0  0  0  0  0  0  0  0  0  0
    0.0000    0.0000    0.0000 N   0  0  0  0  0  0  0  0  0  0  0  0
    0.0000    0.0000    0.0000 C   0  0  0  0  0  0  0  0  0  0  0  0
    0.0000    0.0000    0.0000 C   0  0  0  0  0  0  0  0  0  0  0  0
    0.0000    0.0000    0.0000 C   0  0  0  0  0  0  0  0  0  0  0  0
    0.0000    0.0000    0.0000 C   0  0  0  0  0  0  0  0  0  0  0  0
    0.0000    0.0000    0.0000 C   0  0  0  0  0  0  0  0  0  0  0  0
    0.0000    0.0000    0.0000 O   0  0  0  0  0  0  0  0  0  0  0  0
    0.0000    0.0000    0.0000 O   0  0  0  0  0  0  0  0  0  0  0  0
    0.0000    0.0000    0.0000 C   0  0  0  0  0  0  0  0  0  0  0  0
    0.0000    0.0000    0.0000 O   0  0  0  0  0  0  0  0  0  0  0  0
    0.0000    0.0000    0.0000 O   0  0  0  0  0  0  0  0  0  0  0  0
    0.0000    0.0000    0.0000 C   0  0  0  0  0  0  0  0  0  0  0  0
    0.0000    0.0000    0.0000 N   0  0  0  0  0  0  0  0  0  0  0  0
    0.0000    0.0000    0.0000 C   0  0  0  0  0  0  0  0  0  0  0  0
    0.0000    0.0000    0.0000 N   0  0  0  0  0  0  0  0  0  0  0  0
  1  2  1  0
  2  3  2  0
  3  4  1  0
  4  5  1  0
  4  6  2  0
  6  7  1  0
  7  8  2  0
  8  9  1  0
  9 10  1  0
 10 11  1  0
 11 12  2  0
 12 13  1  0
 13 14  2  0
 14 15  1  0
 15 16  2  0
 14 17  1  0
 17 18  2  0
 17 19  1  0
 19 20  1  0
 20 21  1  0
 21 22  1  0
 22 23  2  0
 22 24  1  0
 24 25  2  0
 24 26  1  0
 20 27  1  0
 27 28  2  0
 27 29  1  0
  8 30  1  0
 30 31  2  0
 31 32  1  0
 32 33  2  0
 33  2  1  0
 32  6  1  0
 16 11  1  0
M  END
>  <pIC50>  (33) 
8.06

>  <ChEMBL_ID>  (33) 
CHEMBL307486

>  <document_journal>  (33) 
J. Med. Chem.

>  <bao_endpoint>  (33) 
BAO_0000190

>  <potential_duplicate>  (33) 
False

>  <uo_units>  (33) 
UO_0000065

>  <canonical_smiles>  (33) 
Nc1nc(N)c2nc(CCc3ccc(cc3)C(=O)NC(CC(=C)C(=O)O)C(=O)O)cnc2n1

>  <parent_molecule_chembl_id>  (33) 
CHEMBL307486

>  <assay_type>  (33) 
B

>  <src_id>  (33) 
1

>  <ligand_efficiency>  (33) 
{u'le': u'0.33', u'bei': u'17.84', u'sei': u'3.89', u'lle': u'6.99'}

>  <standard_flag>  (33) 
True

>  <molecule_chembl_id>  (33) 
CHEMBL307486

>  <target_organism>  (33) 
Homo sapiens

>  <standard_units>  (33) 
nM

>  <record_id>  (33) 
130289

>  <document_chembl_id>  (33) 
CHEMBL1125907

>  <bao_format>  (33) 
BAO_0000357

>  <data_validity_description>  (33) 
None

>  <activity_id>  (33) 
244381

>  <standard_type>  (33) 
IC50

>  <target_chembl_id>  (33) 
CHEMBL202

>  <data_validity_comment>  (33) 
None

>  <published_value>  (33) 
8.8

>  <document_year>  (33) 
1991

>  <target_pref_name>  (33) 
Dihydrofolate reductase

>  <assay_chembl_id>  (33) 
CHEMBL668094

>  <standard_relation>  (33) 
=

>  <assay_description>  (33) 
Compound was tested for its inhibitory activity on Recombinant Human Dihydrofolate Reductase.

>  <published_relation>  (33) 
=

>  <standard_value>  (33) 
8.8

>  <qudt_units>  (33) 
http://www.openphacts.org/units/Nanomolar

>  <target_tax_id>  (33) 
9606

>  <bao_label>  (33) 
single protein format

>  <published_units>  (33) 
nM

>  <pchembl_value>  (33) 
8.06

>  <published_type>  (33) 
IC50

>  <activity_comment>  (33) 
None

$$$$

     RDKit          

 34 36  0  0  0  0  0  0  0  0999 V2000
    0.0000    0.0000    0.0000 C   0  0  0  0  0  0  0  0  0  0  0  0
    0.0000    0.0000    0.0000 C   0  0  0  0  0  0  0  0  0  0  0  0
    0.0000    0.0000    0.0000 C   0  0  0  0  0  0  0  0  0  0  0  0
    0.0000    0.0000    0.0000 C   0  0  0  0  0  0  0  0  0  0  0  0
    0.0000    0.0000    0.0000 C   0  0  0  0  0  0  0  0  0  0  0  0
    0.0000    0.0000    0.0000 C   0  0  0  0  0  0  0  0  0  0  0  0
    0.0000    0.0000    0.0000 N   0  0  0  0  0  0  0  0  0  0  0  0
    0.0000    0.0000    0.0000 C   0  0  0  0  0  0  0  0  0  0  0  0
    0.0000    0.0000    0.0000 N   0  0  0  0  0  0  0  0  0  0  0  0
    0.0000    0.0000    0.0000 C   0  0  0  0  0  0  0  0  0  0  0  0
    0.0000    0.0000    0.0000 N   0  0  0  0  0  0  0  0  0  0  0  0
    0.0000    0.0000    0.0000 N   0  0  0  0  0  0  0  0  0  0  0  0
    0.0000    0.0000    0.0000 C   0  0  0  0  0  0  0  0  0  0  0  0
    0.0000    0.0000    0.0000 N   0  0  0  0  0  0  0  0  0  0  0  0
    0.0000    0.0000    0.0000 C   0  0  0  0  0  0  0  0  0  0  0  0
    0.0000    0.0000    0.0000 N   0  0  0  0  0  0  0  0  0  0  0  0
    0.0000    0.0000    0.0000 C   0  0  0  0  0  0  0  0  0  0  0  0
    0.0000    0.0000    0.0000 C   0  0  0  0  0  0  0  0  0  0  0  0
    0.0000    0.0000    0.0000 C   0  0  0  0  0  0  0  0  0  0  0  0
    0.0000    0.0000    0.0000 C   0  0  0  0  0  0  0  0  0  0  0  0
    0.0000    0.0000    0.0000 C   0  0  0  0  0  0  0  0  0  0  0  0
    0.0000    0.0000    0.0000 C   0  0  0  0  0  0  0  0  0  0  0  0
    0.0000    0.0000    0.0000 C   0  0  0  0  0  0  0  0  0  0  0  0
    0.0000    0.0000    0.0000 O   0  0  0  0  0  0  0  0  0  0  0  0
    0.0000    0.0000    0.0000 N   0  0  0  0  0  0  0  0  0  0  0  0
    0.0000    0.0000    0.0000 C   0  0  0  0  0  0  0  0  0  0  0  0
    0.0000    0.0000    0.0000 C   0  0  0  0  0  0  0  0  0  0  0  0
    0.0000    0.0000    0.0000 C   0  0  0  0  0  0  0  0  0  0  0  0
    0.0000    0.0000    0.0000 C   0  0  0  0  0  0  0  0  0  0  0  0
    0.0000    0.0000    0.0000 O   0  0  0  0  0  0  0  0  0  0  0  0
    0.0000    0.0000    0.0000 O   0  0  0  0  0  0  0  0  0  0  0  0
    0.0000    0.0000    0.0000 C   0  0  0  0  0  0  0  0  0  0  0  0
    0.0000    0.0000    0.0000 O   0  0  0  0  0  0  0  0  0  0  0  0
    0.0000    0.0000    0.0000 O   0  0  0  0  0  0  0  0  0  0  0  0
  1  2  1  0
  2  3  1  0
  3  4  1  0
  4  5  1  0
  5  6  2  0
  6  7  1  0
  7  8  2  0
  8  9  1  0
  9 10  2  0
 10 11  1  0
 10 12  1  0
 12 13  2  0
 13 14  1  0
 13 15  1  0
 15 16  2  0
  3 17  1  0
 17 18  2  0
 18 19  1  0
 19 20  2  0
 20 21  1  0
 21 22  2  0
 20 23  1  0
 23 24  2  0
 23 25  1  0
 25 26  1  0
 26 27  1  0
 27 28  1  0
 28 29  1  0
 29 30  2  0
 29 31  1  0
 26 32  1  0
 32 33  2  0
 32 34  1  0
 16  5  1  0
 15  8  1  0
 22 17  1  0
M  END
>  <pIC50>  (34) 
8.475

>  <ChEMBL_ID>  (34) 
CHEMBL296373

>  <document_journal>  (34) 
J. Med. Chem.

>  <bao_endpoint>  (34) 
BAO_0000190

>  <potential_duplicate>  (34) 
False

>  <uo_units>  (34) 
UO_0000065

>  <canonical_smiles>  (34) 
CCC(Cc1cnc2nc(N)nc(N)c2n1)c3ccc(cc3)C(=O)N[C@@H](CCC(=O)O)C(=O)O

>  <parent_molecule_chembl_id>  (34) 
CHEMBL296373

>  <assay_type>  (34) 
B

>  <src_id>  (34) 
1

>  <ligand_efficiency>  (34) 
{u'le': u'0.34', u'bei': u'17.88', u'sei': u'4.03', u'lle': u'7.06'}

>  <standard_flag>  (34) 
True

>  <molecule_chembl_id>  (34) 
CHEMBL296373

>  <target_organism>  (34) 
Homo sapiens

>  <standard_units>  (34) 
nM

>  <record_id>  (34) 
130285

>  <document_chembl_id>  (34) 
CHEMBL1125907

>  <bao_format>  (34) 
BAO_0000357

>  <data_validity_description>  (34) 
None

>  <activity_id>  (34) 
259407

>  <standard_type>  (34) 
IC50

>  <target_chembl_id>  (34) 
CHEMBL202

>  <data_validity_comment>  (34) 
None

>  <published_value>  (34) 
4.4

>  <document_year>  (34) 
1991

>  <target_pref_name>  (34) 
Dihydrofolate reductase

>  <assay_chembl_id>  (34) 
CHEMBL668094

>  <standard_relation>  (34) 
=

>  <assay_description>  (34) 
Compound was tested for its inhibitory activity on Recombinant Human Dihydrofolate Reductase.

>  <published_relation>  (34) 
=

>  <standard_value>  (34) 
4.4

>  <qudt_units>  (34) 
http://www.openphacts.org/units/Nanomolar

>  <target_tax_id>  (34) 
9606

>  <bao_label>  (34) 
single protein format

>  <published_units>  (34) 
nM

>  <pchembl_value>  (34) 
8.36

>  <published_type>  (34) 
IC50

>  <activity_comment>  (34) 
None

$$$$

     RDKit          

 32 34  0  0  0  0  0  0  0  0999 V2000
    0.0000    0.0000    0.0000 N   0  0  0  0  0  0  0  0  0  0  0  0
    0.0000    0.0000    0.0000 C   0  0  0  0  0  0  0  0  0  0  0  0
    0.0000    0.0000    0.0000 N   0  0  0  0  0  0  0  0  0  0  0  0
    0.0000    0.0000    0.0000 C   0  0  0  0  0  0  0  0  0  0  0  0
    0.0000    0.0000    0.0000 N   0  0  0  0  0  0  0  0  0  0  0  0
    0.0000    0.0000    0.0000 C   0  0  0  0  0  0  0  0  0  0  0  0
    0.0000    0.0000    0.0000 N   0  0  0  0  0  0  0  0  0  0  0  0
    0.0000    0.0000    0.0000 C   0  0  0  0  0  0  0  0  0  0  0  0
    0.0000    0.0000    0.0000 C   0  0  0  0  0  0  0  0  0  0  0  0
    0.0000    0.0000    0.0000 C   0  0  0  0  0  0  0  0  0  0  0  0
    0.0000    0.0000    0.0000 C   0  0  0  0  0  0  0  0  0  0  0  0
    0.0000    0.0000    0.0000 C   0  0  0  0  0  0  0  0  0  0  0  0
    0.0000    0.0000    0.0000 C   0  0  0  0  0  0  0  0  0  0  0  0
    0.0000    0.0000    0.0000 C   0  0  0  0  0  0  0  0  0  0  0  0
    0.0000    0.0000    0.0000 C   0  0  0  0  0  0  0  0  0  0  0  0
    0.0000    0.0000    0.0000 C   0  0  0  0  0  0  0  0  0  0  0  0
    0.0000    0.0000    0.0000 C   0  0  0  0  0  0  0  0  0  0  0  0
    0.0000    0.0000    0.0000 O   0  0  0  0  0  0  0  0  0  0  0  0
    0.0000    0.0000    0.0000 N   0  0  0  0  0  0  0  0  0  0  0  0
    0.0000    0.0000    0.0000 C   0  0  0  0  0  0  0  0  0  0  0  0
    0.0000    0.0000    0.0000 C   0  0  0  0  0  0  0  0  0  0  0  0
    0.0000    0.0000    0.0000 C   0  0  0  0  0  0  0  0  0  0  0  0
    0.0000    0.0000    0.0000 C   0  0  0  0  0  0  0  0  0  0  0  0
    0.0000    0.0000    0.0000 O   0  0  0  0  0  0  0  0  0  0  0  0
    0.0000    0.0000    0.0000 O   0  0  0  0  0  0  0  0  0  0  0  0
    0.0000    0.0000    0.0000 C   0  0  0  0  0  0  0  0  0  0  0  0
    0.0000    0.0000    0.0000 O   0  0  0  0  0  0  0  0  0  0  0  0
    0.0000    0.0000    0.0000 O   0  0  0  0  0  0  0  0  0  0  0  0
    0.0000    0.0000    0.0000 C   0  0  0  0  0  0  0  0  0  0  0  0
    0.0000    0.0000    0.0000 N   0  0  0  0  0  0  0  0  0  0  0  0
    0.0000    0.0000    0.0000 C   0  0  0  0  0  0  0  0  0  0  0  0
    0.0000    0.0000    0.0000 N   0  0  0  0  0  0  0  0  0  0  0  0
  1  2  1  0
  2  3  2  0
  3  4  1  0
  4  5  1  0
  4  6  2  0
  6  7  1  0
  7  8  2  0
  8  9  1  0
  9 10  1  0
 10 11  1  0
 11 12  2  0
 12 13  1  0
 13 14  2  0
 14 15  1  0
 15 16  2  0
 14 17  1  0
 17 18  2  0
 17 19  1  0
 19 20  1  0
 20 21  1  0
 21 22  1  0
 22 23  1  0
 23 24  2  0
 23 25  1  0
 20 26  1  0
 26 27  2  0
 26 28  1  0
  8 29  1  0
 29 30  2  0
 30 31  1  0
 31 32  2  0
 32  2  1  0
 31  6  1  0
 16 11  1  0
M  END
>  <pIC50>  (35) 
8.39

>  <ChEMBL_ID>  (35) 
CHEMBL293263

>  <document_journal>  (35) 
J. Med. Chem.

>  <bao_endpoint>  (35) 
BAO_0000190

>  <potential_duplicate>  (35) 
False

>  <uo_units>  (35) 
UO_0000065

>  <canonical_smiles>  (35) 
Nc1nc(N)c2nc(CCc3ccc(cc3)C(=O)N[C@@H](CCC(=O)O)C(=O)O)cnc2n1

>  <parent_molecule_chembl_id>  (35) 
CHEMBL293263

>  <assay_type>  (35) 
B

>  <src_id>  (35) 
1

>  <ligand_efficiency>  (35) 
{u'le': u'0.36', u'bei': u'19.09', u'sei': u'4.05', u'lle': u'7.8'}

>  <standard_flag>  (35) 
True

>  <molecule_chembl_id>  (35) 
CHEMBL293263

>  <target_organism>  (35) 
Homo sapiens

>  <standard_units>  (35) 
nM

>  <record_id>  (35) 
130288

>  <document_chembl_id>  (35) 
CHEMBL1125907

>  <bao_format>  (35) 
BAO_0000357

>  <data_validity_description>  (35) 
None

>  <activity_id>  (35) 
264750

>  <standard_type>  (35) 
IC50

>  <target_chembl_id>  (35) 
CHEMBL202

>  <data_validity_comment>  (35) 
None

>  <published_value>  (35) 
4.1

>  <document_year>  (35) 
1991

>  <target_pref_name>  (35) 
Dihydrofolate reductase

>  <assay_chembl_id>  (35) 
CHEMBL668094

>  <standard_relation>  (35) 
=

>  <assay_description>  (35) 
Compound was tested for its inhibitory activity on Recombinant Human Dihydrofolate Reductase.

>  <published_relation>  (35) 
=

>  <standard_value>  (35) 
4.1

>  <qudt_units>  (35) 
http://www.openphacts.org/units/Nanomolar

>  <target_tax_id>  (35) 
9606

>  <bao_label>  (35) 
single protein format

>  <published_units>  (35) 
nM

>  <pchembl_value>  (35) 
8.39

>  <published_type>  (35) 
IC50

>  <activity_comment>  (35) 
None

$$$$

     RDKit          

 32 34  0  0  0  0  0  0  0  0999 V2000
    0.0000    0.0000    0.0000 C   0  0  0  0  0  0  0  0  0  0  0  0
    0.0000    0.0000    0.0000 N   0  0  0  0  0  0  0  0  0  0  0  0
    0.0000    0.0000    0.0000 C   0  0  0  0  0  0  0  0  0  0  0  0
    0.0000    0.0000    0.0000 C   0  0  0  0  0  0  0  0  0  0  0  0
    0.0000    0.0000    0.0000 C   0  0  0  0  0  0  0  0  0  0  0  0
    0.0000    0.0000    0.0000 N   0  0  0  0  0  0  0  0  0  0  0  0
    0.0000    0.0000    0.0000 C   0  0  0  0  0  0  0  0  0  0  0  0
    0.0000    0.0000    0.0000 N   0  0  0  0  0  0  0  0  0  0  0  0
    0.0000    0.0000    0.0000 C   0  0  0  0  0  0  0  0  0  0  0  0
    0.0000    0.0000    0.0000 N   0  0  0  0  0  0  0  0  0  0  0  0
    0.0000    0.0000    0.0000 C   0  0  0  0  0  0  0  0  0  0  0  0
    0.0000    0.0000    0.0000 N   0  0  0  0  0  0  0  0  0  0  0  0
    0.0000    0.0000    0.0000 C   0  0  0  0  0  0  0  0  0  0  0  0
    0.0000    0.0000    0.0000 N   0  0  0  0  0  0  0  0  0  0  0  0
    0.0000    0.0000    0.0000 C   0  0  0  0  0  0  0  0  0  0  0  0
    0.0000    0.0000    0.0000 C   0  0  0  0  0  0  0  0  0  0  0  0
    0.0000    0.0000    0.0000 C   0  0  0  0  0  0  0  0  0  0  0  0
    0.0000    0.0000    0.0000 C   0  0  0  0  0  0  0  0  0  0  0  0
    0.0000    0.0000    0.0000 C   0  0  0  0  0  0  0  0  0  0  0  0
    0.0000    0.0000    0.0000 C   0  0  0  0  0  0  0  0  0  0  0  0
    0.0000    0.0000    0.0000 C   0  0  0  0  0  0  0  0  0  0  0  0
    0.0000    0.0000    0.0000 O   0  0  0  0  0  0  0  0  0  0  0  0
    0.0000    0.0000    0.0000 N   0  0  0  0  0  0  0  0  0  0  0  0
    0.0000    0.0000    0.0000 C   0  0  0  0  0  0  0  0  0  0  0  0
    0.0000    0.0000    0.0000 C   0  0  0  0  0  0  0  0  0  0  0  0
    0.0000    0.0000    0.0000 C   0  0  0  0  0  0  0  0  0  0  0  0
    0.0000    0.0000    0.0000 C   0  0  0  0  0  0  0  0  0  0  0  0
    0.0000    0.0000    0.0000 O   0  0  0  0  0  0  0  0  0  0  0  0
    0.0000    0.0000    0.0000 O   0  0  0  0  0  0  0  0  0  0  0  0
    0.0000    0.0000    0.0000 C   0  0  0  0  0  0  0  0  0  0  0  0
    0.0000    0.0000    0.0000 O   0  0  0  0  0  0  0  0  0  0  0  0
    0.0000    0.0000    0.0000 O   0  0  0  0  0  0  0  0  0  0  0  0
  1  2  1  0
  2  3  1  0
  3  4  1  0
  4  5  2  0
  5  6  1  0
  6  7  2  0
  7  8  1  0
  8  9  2  0
  9 10  1  0
 10 11  2  0
 11 12  1  0
 11 13  1  0
 13 14  2  0
  2 15  1  0
 15 16  2  0
 16 17  1  0
 17 18  2  0
 18 19  1  0
 19 20  2  0
 18 21  1  0
 21 22  2  0
 21 23  1  0
 23 24  1  0
 24 25  1  0
 25 26  1  0
 26 27  1  0
 27 28  2  0
 27 29  1  0
 24 30  1  0
 30 31  2  0
 30 32  1  0
 14  4  1  0
 13  7  1  0
 20 15  1  0
M  END
>  <pIC50>  (36) 
5.22

>  <ChEMBL_ID>  (36) 
CHEMBL74422

>  <document_journal>  (36) 
J. Med. Chem.

>  <bao_endpoint>  (36) 
BAO_0000190

>  <potential_duplicate>  (36) 
False

>  <uo_units>  (36) 
UO_0000065

>  <canonical_smiles>  (36) 
CN(Cc1cnc2ncnc(N)c2n1)c3ccc(cc3)C(=O)NC(CCC(=O)O)C(=O)O

>  <parent_molecule_chembl_id>  (36) 
CHEMBL74422

>  <assay_type>  (36) 
B

>  <src_id>  (36) 
1

>  <ligand_efficiency>  (36) 
{u'le': u'0.22', u'bei': u'11.88', u'sei': u'2.83', u'lle': u'4.88'}

>  <standard_flag>  (36) 
True

>  <molecule_chembl_id>  (36) 
CHEMBL74422

>  <target_organism>  (36) 
Homo sapiens

>  <standard_units>  (36) 
nM

>  <record_id>  (36) 
136194

>  <document_chembl_id>  (36) 
CHEMBL1125867

>  <bao_format>  (36) 
BAO_0000357

>  <data_validity_description>  (36) 
None

>  <activity_id>  (36) 
265905

>  <standard_type>  (36) 
IC50

>  <target_chembl_id>  (36) 
CHEMBL202

>  <data_validity_comment>  (36) 
None

>  <published_value>  (36) 
6

>  <document_year>  (36) 
1991

>  <target_pref_name>  (36) 
Dihydrofolate reductase

>  <assay_chembl_id>  (36) 
CHEMBL668093

>  <standard_relation>  (36) 
=

>  <assay_description>  (36) 
Compound was evaluated for Dihydrofolate Reductase (DHFR) inhibition

>  <published_relation>  (36) 
=

>  <standard_value>  (36) 
6000

>  <qudt_units>  (36) 
http://www.openphacts.org/units/Nanomolar

>  <target_tax_id>  (36) 
9606

>  <bao_label>  (36) 
single protein format

>  <published_units>  (36) 
uM

>  <pchembl_value>  (36) 
5.22

>  <published_type>  (36) 
IC50

>  <activity_comment>  (36) 
None

$$$$

     RDKit          

 24 25  0  0  0  0  0  0  0  0999 V2000
    0.0000    0.0000    0.0000 C   0  0  0  0  0  0  0  0  0  0  0  0
    0.0000    0.0000    0.0000 O   0  0  0  0  0  0  0  0  0  0  0  0
    0.0000    0.0000    0.0000 C   0  0  0  0  0  0  0  0  0  0  0  0
    0.0000    0.0000    0.0000 C   0  0  0  0  0  0  0  0  0  0  0  0
    0.0000    0.0000    0.0000 C   0  0  0  0  0  0  0  0  0  0  0  0
    0.0000    0.0000    0.0000 C   0  0  0  0  0  0  0  0  0  0  0  0
    0.0000    0.0000    0.0000 C   0  0  0  0  0  0  0  0  0  0  0  0
    0.0000    0.0000    0.0000 C   0  0  0  0  0  0  0  0  0  0  0  0
    0.0000    0.0000    0.0000 C   0  0  0  0  0  0  0  0  0  0  0  0
    0.0000    0.0000    0.0000 C   0  0  0  0  0  0  0  0  0  0  0  0
    0.0000    0.0000    0.0000 C   0  0  0  0  0  0  0  0  0  0  0  0
    0.0000    0.0000    0.0000 N   0  0  0  0  0  0  0  0  0  0  0  0
    0.0000    0.0000    0.0000 C   0  0  0  0  0  0  0  0  0  0  0  0
    0.0000    0.0000    0.0000 N   0  0  0  0  0  0  0  0  0  0  0  0
    0.0000    0.0000    0.0000 N   0  0  0  0  0  0  0  0  0  0  0  0
    0.0000    0.0000    0.0000 C   0  0  0  0  0  0  0  0  0  0  0  0
    0.0000    0.0000    0.0000 N   0  0  0  0  0  0  0  0  0  0  0  0
    0.0000    0.0000    0.0000 C   0  0  0  0  0  0  0  0  0  0  0  0
    0.0000    0.0000    0.0000 C   0  0  0  0  0  0  0  0  0  0  0  0
    0.0000    0.0000    0.0000 C   0  0  0  0  0  0  0  0  0  0  0  0
    0.0000    0.0000    0.0000 C   0  0  0  0  0  0  0  0  0  0  0  0
    0.0000    0.0000    0.0000 C   0  0  0  0  0  0  0  0  0  0  0  0
    0.0000    0.0000    0.0000 O   0  0  0  0  0  0  0  0  0  0  0  0
    0.0000    0.0000    0.0000 O   0  0  0  0  0  0  0  0  0  0  0  0
  1  2  1  0
  2  3  1  0
  3  4  2  0
  4  5  1  0
  5  6  2  0
  6  7  1  0
  7  8  2  0
  8  9  1  0
  9 10  1  0
 10 11  2  0
 11 12  1  0
 12 13  2  0
 13 14  1  0
 13 15  1  0
 15 16  2  0
 16 17  1  0
  6 18  1  0
 18 19  3  0
 19 20  1  0
 20 21  1  0
 21 22  1  0
 22 23  2  0
 22 24  1  0
  8  3  1  0
 16 10  1  0
M  END
>  <pIC50>  (37) 
4.91

>  <ChEMBL_ID>  (37) 
CHEMBL34823

>  <document_journal>  (37) 
J. Med. Chem.

>  <bao_endpoint>  (37) 
BAO_0000190

>  <potential_duplicate>  (37) 
False

>  <uo_units>  (37) 
UO_0000065

>  <canonical_smiles>  (37) 
COc1ccc(cc1Cc2cnc(N)nc2N)C#CCCC(=O)O

>  <parent_molecule_chembl_id>  (37) 
CHEMBL34823

>  <assay_type>  (37) 
B

>  <src_id>  (37) 
1

>  <ligand_efficiency>  (37) 
{u'le': u'0.26', u'bei': u'13.86', u'sei': u'3.64', u'lle': u'2.23'}

>  <standard_flag>  (37) 
True

>  <molecule_chembl_id>  (37) 
CHEMBL34823

>  <target_organism>  (37) 
Homo sapiens

>  <standard_units>  (37) 
nM

>  <record_id>  (37) 
55468

>  <document_chembl_id>  (37) 
CHEMBL1149100

>  <bao_format>  (37) 
BAO_0000357

>  <data_validity_description>  (37) 
None

>  <activity_id>  (37) 
274605

>  <standard_type>  (37) 
IC50

>  <target_chembl_id>  (37) 
CHEMBL202

>  <data_validity_comment>  (37) 
None

>  <published_value>  (37) 
30000

>  <document_year>  (37) 
2004

>  <target_pref_name>  (37) 
Dihydrofolate reductase

>  <assay_chembl_id>  (37) 
CHEMBL668104

>  <standard_relation>  (37) 
=

>  <assay_description>  (37) 
Inhibitory concentration against dihydrofolate reductace enzyme of Cryptosporidium parvum of human origin

>  <published_relation>  (37) 
=

>  <standard_value>  (37) 
30000

>  <qudt_units>  (37) 
http://www.openphacts.org/units/Nanomolar

>  <target_tax_id>  (37) 
9606

>  <bao_label>  (37) 
single protein format

>  <published_units>  (37) 
nM

>  <pchembl_value>  (37) 
4.52

>  <published_type>  (37) 
IC50

>  <activity_comment>  (37) 
None

$$$$

     RDKit          

 32 34  0  0  0  0  0  0  0  0999 V2000
    0.0000    0.0000    0.0000 N   0  0  0  0  0  0  0  0  0  0  0  0
    0.0000    0.0000    0.0000 C   0  0  0  0  0  0  0  0  0  0  0  0
    0.0000    0.0000    0.0000 N   0  0  0  0  0  0  0  0  0  0  0  0
    0.0000    0.0000    0.0000 C   0  0  0  0  0  0  0  0  0  0  0  0
    0.0000    0.0000    0.0000 N   0  0  0  0  0  0  0  0  0  0  0  0
    0.0000    0.0000    0.0000 C   0  0  0  0  0  0  0  0  0  0  0  0
    0.0000    0.0000    0.0000 N   0  0  0  0  0  0  0  0  0  0  0  0
    0.0000    0.0000    0.0000 C   0  0  0  0  0  0  0  0  0  0  0  0
    0.0000    0.0000    0.0000 C   0  0  0  0  0  0  0  0  0  0  0  0
    0.0000    0.0000    0.0000 N   0  0  0  0  0  0  0  0  0  0  0  0
    0.0000    0.0000    0.0000 C   0  0  0  0  0  0  0  0  0  0  0  0
    0.0000    0.0000    0.0000 C   0  0  0  0  0  0  0  0  0  0  0  0
    0.0000    0.0000    0.0000 C   0  0  0  0  0  0  0  0  0  0  0  0
    0.0000    0.0000    0.0000 C   0  0  0  0  0  0  0  0  0  0  0  0
    0.0000    0.0000    0.0000 C   0  0  0  0  0  0  0  0  0  0  0  0
    0.0000    0.0000    0.0000 C   0  0  0  0  0  0  0  0  0  0  0  0
    0.0000    0.0000    0.0000 C   0  0  0  0  0  0  0  0  0  0  0  0
    0.0000    0.0000    0.0000 O   0  0  0  0  0  0  0  0  0  0  0  0
    0.0000    0.0000    0.0000 N   0  0  0  0  0  0  0  0  0  0  0  0
    0.0000    0.0000    0.0000 C   0  0  0  0  0  0  0  0  0  0  0  0
    0.0000    0.0000    0.0000 C   0  0  0  0  0  0  0  0  0  0  0  0
    0.0000    0.0000    0.0000 C   0  0  0  0  0  0  0  0  0  0  0  0
    0.0000    0.0000    0.0000 C   0  0  0  0  0  0  0  0  0  0  0  0
    0.0000    0.0000    0.0000 O   0  0  0  0  0  0  0  0  0  0  0  0
    0.0000    0.0000    0.0000 O   0  0  0  0  0  0  0  0  0  0  0  0
    0.0000    0.0000    0.0000 C   0  0  0  0  0  0  0  0  0  0  0  0
    0.0000    0.0000    0.0000 O   0  0  0  0  0  0  0  0  0  0  0  0
    0.0000    0.0000    0.0000 O   0  0  0  0  0  0  0  0  0  0  0  0
    0.0000    0.0000    0.0000 C   0  0  0  0  0  0  0  0  0  0  0  0
    0.0000    0.0000    0.0000 N   0  0  0  0  0  0  0  0  0  0  0  0
    0.0000    0.0000    0.0000 C   0  0  0  0  0  0  0  0  0  0  0  0
    0.0000    0.0000    0.0000 N   0  0  0  0  0  0  0  0  0  0  0  0
  1  2  1  0
  2  3  2  0
  3  4  1  0
  4  5  1  0
  4  6  2  0
  6  7  1  0
  7  8  2  0
  8  9  1  0
  9 10  1  0
 10 11  1  0
 11 12  2  0
 12 13  1  0
 13 14  2  0
 14 15  1  0
 15 16  2  0
 14 17  1  0
 17 18  2  0
 17 19  1  0
 19 20  1  0
 20 21  1  0
 21 22  1  0
 22 23  1  0
 23 24  2  0
 23 25  1  0
 20 26  1  0
 26 27  2  0
 26 28  1  0
  8 29  1  0
 29 30  2  0
 30 31  1  0
 31 32  2  0
 32  2  1  0
 31  6  1  0
 16 11  1  0
M  END
>  <pIC50>  (38) 
7.79333333333

>  <ChEMBL_ID>  (38) 
CHEMBL376180

>  <document_journal>  (38) 
J. Med. Chem.

>  <bao_endpoint>  (38) 
BAO_0000190

>  <potential_duplicate>  (38) 
False

>  <uo_units>  (38) 
UO_0000065

>  <canonical_smiles>  (38) 
Nc1nc(N)c2nc(CNc3ccc(cc3)C(=O)N[C@@H](CCC(=O)O)C(=O)O)cnc2n1

>  <parent_molecule_chembl_id>  (38) 
CHEMBL376180

>  <assay_type>  (38) 
B

>  <src_id>  (38) 
1

>  <ligand_efficiency>  (38) 
{u'le': u'0.32', u'bei': u'17.26', u'sei': u'3.47', u'lle': u'7.84'}

>  <standard_flag>  (38) 
True

>  <molecule_chembl_id>  (38) 
CHEMBL376180

>  <target_organism>  (38) 
Homo sapiens

>  <standard_units>  (38) 
nM

>  <record_id>  (38) 
136196

>  <document_chembl_id>  (38) 
CHEMBL1125867

>  <bao_format>  (38) 
BAO_0000357

>  <data_validity_description>  (38) 
None

>  <activity_id>  (38) 
279560

>  <standard_type>  (38) 
IC50

>  <target_chembl_id>  (38) 
CHEMBL202

>  <data_validity_comment>  (38) 
None

>  <published_value>  (38) 
0.025

>  <document_year>  (38) 
1991

>  <target_pref_name>  (38) 
Dihydrofolate reductase

>  <assay_chembl_id>  (38) 
CHEMBL668093

>  <standard_relation>  (38) 
=

>  <assay_description>  (38) 
Compound was evaluated for Dihydrofolate Reductase (DHFR) inhibition

>  <published_relation>  (38) 
=

>  <standard_value>  (38) 
25

>  <qudt_units>  (38) 
http://www.openphacts.org/units/Nanomolar

>  <target_tax_id>  (38) 
9606

>  <bao_label>  (38) 
single protein format

>  <published_units>  (38) 
uM

>  <pchembl_value>  (38) 
7.6

>  <published_type>  (38) 
IC50

>  <activity_comment>  (38) 
None

$$$$

     RDKit          

 21 23  0  0  0  0  0  0  0  0999 V2000
    0.0000    0.0000    0.0000 C   0  0  0  0  0  0  0  0  0  0  0  0
    0.0000    0.0000    0.0000 C   0  0  0  0  0  0  0  0  0  0  0  0
    0.0000    0.0000    0.0000 O   0  0  0  0  0  0  0  0  0  0  0  0
    0.0000    0.0000    0.0000 C   0  0  0  0  0  0  0  0  0  0  0  0
    0.0000    0.0000    0.0000 C   0  0  0  0  0  0  0  0  0  0  0  0
    0.0000    0.0000    0.0000 C   0  0  0  0  0  0  0  0  0  0  0  0
    0.0000    0.0000    0.0000 C   0  0  0  0  0  0  0  0  0  0  0  0
    0.0000    0.0000    0.0000 C   0  0  0  0  0  0  0  0  0  0  0  0
    0.0000    0.0000    0.0000 C   0  0  0  0  0  0  0  0  0  0  0  0
    0.0000    0.0000    0.0000 N   0  0  0  0  0  0  0  0  0  0  0  0
    0.0000    0.0000    0.0000 C   0  0  0  0  0  0  0  0  0  0  0  0
    0.0000    0.0000    0.0000 N   0  0  0  0  0  0  0  0  0  0  0  0
    0.0000    0.0000    0.0000 N   0  0  0  0  0  0  0  0  0  0  0  0
    0.0000    0.0000    0.0000 C   0  0  0  0  0  0  0  0  0  0  0  0
    0.0000    0.0000    0.0000 N   0  0  0  0  0  0  0  0  0  0  0  0
    0.0000    0.0000    0.0000 C   0  0  0  0  0  0  0  0  0  0  0  0
    0.0000    0.0000    0.0000 C   0  0  0  0  0  0  0  0  0  0  0  0
    0.0000    0.0000    0.0000 O   0  0  0  0  0  0  0  0  0  0  0  0
    0.0000    0.0000    0.0000 C   0  0  0  0  0  0  0  0  0  0  0  0
    0.0000    0.0000    0.0000 O   0  0  0  0  0  0  0  0  0  0  0  0
    0.0000    0.0000    0.0000 C   0  0  0  0  0  0  0  0  0  0  0  0
  1  2  1  0
  2  3  1  0
  3  4  1  0
  4  5  2  0
  5  6  1  0
  6  7  1  0
  7  8  1  0
  8  9  2  0
  9 10  1  0
 10 11  2  0
 11 12  1  0
 11 13  1  0
 13 14  2  0
 14 15  1  0
  6 16  2  0
 16 17  1  0
 17 18  1  0
 18 19  1  0
 19 20  1  0
 20 21  1  0
 21  4  1  0
 14  8  1  0
 21 17  2  0
M  END
>  <pIC50>  (39) 
6.85

>  <ChEMBL_ID>  (39) 
CHEMBL58908

>  <document_journal>  (39) 
J. Med. Chem.

>  <bao_endpoint>  (39) 
BAO_0000190

>  <potential_duplicate>  (39) 
False

>  <uo_units>  (39) 
UO_0000065

>  <canonical_smiles>  (39) 
CCOc1cc(Cc2cnc(N)nc2N)cc3OCOc13

>  <parent_molecule_chembl_id>  (39) 
CHEMBL58908

>  <assay_type>  (39) 
B

>  <src_id>  (39) 
1

>  <ligand_efficiency>  (39) 
{u'le': u'0.45', u'bei': u'23.77', u'sei': u'6.5', u'lle': u'5.16'}

>  <standard_flag>  (39) 
True

>  <molecule_chembl_id>  (39) 
CHEMBL58908

>  <target_organism>  (39) 
Homo sapiens

>  <standard_units>  (39) 
nM

>  <record_id>  (39) 
101753

>  <document_chembl_id>  (39) 
CHEMBL1124568

>  <bao_format>  (39) 
BAO_0000357

>  <data_validity_description>  (39) 
None

>  <activity_id>  (39) 
280938

>  <standard_type>  (39) 
IC50

>  <target_chembl_id>  (39) 
CHEMBL202

>  <data_validity_comment>  (39) 
None

>  <published_value>  (39) 
1.4E-7

>  <document_year>  (39) 
1989

>  <target_pref_name>  (39) 
Dihydrofolate reductase

>  <assay_chembl_id>  (39) 
CHEMBL667004

>  <standard_relation>  (39) 
=

>  <assay_description>  (39) 
In vitro inhibition of dihydrofolate reductase of Neisseria gonorrhoeae

>  <published_relation>  (39) 
=

>  <standard_value>  (39) 
140

>  <qudt_units>  (39) 
http://www.openphacts.org/units/Nanomolar

>  <target_tax_id>  (39) 
9606

>  <bao_label>  (39) 
single protein format

>  <published_units>  (39) 
M

>  <pchembl_value>  (39) 
6.85

>  <published_type>  (39) 
I50

>  <activity_comment>  (39) 
None

$$$$

     RDKit          

 24 26  0  0  0  0  0  0  0  0999 V2000
    0.0000    0.0000    0.0000 C   0  0  0  0  0  0  0  0  0  0  0  0
    0.0000    0.0000    0.0000 O   0  0  0  0  0  0  0  0  0  0  0  0
    0.0000    0.0000    0.0000 C   0  0  0  0  0  0  0  0  0  0  0  0
    0.0000    0.0000    0.0000 C   0  0  0  0  0  0  0  0  0  0  0  0
    0.0000    0.0000    0.0000 C   0  0  0  0  0  0  0  0  0  0  0  0
    0.0000    0.0000    0.0000 C   0  0  0  0  0  0  0  0  0  0  0  0
    0.0000    0.0000    0.0000 C   0  0  0  0  0  0  0  0  0  0  0  0
    0.0000    0.0000    0.0000 C   0  0  0  0  0  0  0  0  0  0  0  0
    0.0000    0.0000    0.0000 N   0  0  0  0  0  0  0  0  0  0  0  0
    0.0000    0.0000    0.0000 C   0  0  0  0  0  0  0  0  0  0  0  0
    0.0000    0.0000    0.0000 N   0  0  0  0  0  0  0  0  0  0  0  0
    0.0000    0.0000    0.0000 C   0  0  0  0  0  0  0  0  0  0  0  0
    0.0000    0.0000    0.0000 N   0  0  0  0  0  0  0  0  0  0  0  0
    0.0000    0.0000    0.0000 N   0  0  0  0  0  0  0  0  0  0  0  0
    0.0000    0.0000    0.0000 C   0  0  0  0  0  0  0  0  0  0  0  0
    0.0000    0.0000    0.0000 N   0  0  0  0  0  0  0  0  0  0  0  0
    0.0000    0.0000    0.0000 C   0  0  0  0  0  0  0  0  0  0  0  0
    0.0000    0.0000    0.0000 C   0  0  0  0  0  0  0  0  0  0  0  0
    0.0000    0.0000    0.0000 C   0  0  0  0  0  0  0  0  0  0  0  0
    0.0000    0.0000    0.0000 C   0  0  0  0  0  0  0  0  0  0  0  0
    0.0000    0.0000    0.0000 C   0  0  0  0  0  0  0  0  0  0  0  0
    0.0000    0.0000    0.0000 O   0  0  0  0  0  0  0  0  0  0  0  0
    0.0000    0.0000    0.0000 C   0  0  0  0  0  0  0  0  0  0  0  0
    0.0000    0.0000    0.0000 C   0  0  0  0  0  0  0  0  0  0  0  0
  1  2  1  0
  2  3  1  0
  3  4  2  0
  4  5  1  0
  5  6  1  0
  6  7  1  0
  7  8  2  0
  8  9  1  0
  9 10  2  0
 10 11  1  0
 11 12  2  0
 12 13  1  0
 12 14  1  0
 14 15  2  0
 15 16  1  0
 15 17  1  0
 17 18  2  0
 18 19  1  0
  5 20  2  0
 20 21  1  0
 21 22  1  0
 22 23  1  0
 21 24  2  0
 24  3  1  0
 18  7  1  0
 17 10  1  0
M  END
>  <pIC50>  (40) 
8.82

>  <ChEMBL_ID>  (40) 
CHEMBL38053

>  <document_journal>  (40) 
J. Med. Chem.

>  <bao_endpoint>  (40) 
BAO_0000190

>  <potential_duplicate>  (40) 
False

>  <uo_units>  (40) 
UO_0000065

>  <canonical_smiles>  (40) 
COc1cc(Cc2cnc3nc(N)nc(N)c3c2C)cc(OC)c1

>  <parent_molecule_chembl_id>  (40) 
CHEMBL38053

>  <assay_type>  (40) 
B

>  <src_id>  (40) 
1

>  <ligand_efficiency>  (40) 
{u'le': u'0.5', u'bei': u'27.12', u'sei': u'8.08', u'lle': u'6.39'}

>  <standard_flag>  (40) 
True

>  <molecule_chembl_id>  (40) 
CHEMBL38053

>  <target_organism>  (40) 
Homo sapiens

>  <standard_units>  (40) 
nM

>  <record_id>  (40) 
55451

>  <document_chembl_id>  (40) 
CHEMBL1149100

>  <bao_format>  (40) 
BAO_0000019

>  <data_validity_description>  (40) 
None

>  <activity_id>  (40) 
283044

>  <standard_type>  (40) 
IC50

>  <target_chembl_id>  (40) 
CHEMBL202

>  <data_validity_comment>  (40) 
None

>  <published_value>  (40) 
1.5

>  <document_year>  (40) 
2004

>  <target_pref_name>  (40) 
Dihydrofolate reductase

>  <assay_chembl_id>  (40) 
CHEMBL668280

>  <standard_relation>  (40) 
=

>  <assay_description>  (40) 
Inhibitory concentration against dihydrofolate reductase of rat liver

>  <published_relation>  (40) 
=

>  <standard_value>  (40) 
1.5

>  <qudt_units>  (40) 
http://www.openphacts.org/units/Nanomolar

>  <target_tax_id>  (40) 
9606

>  <bao_label>  (40) 
assay format

>  <published_units>  (40) 
nM

>  <pchembl_value>  (40) 
8.82

>  <published_type>  (40) 
IC50

>  <activity_comment>  (40) 
None

$$$$

     RDKit          

 21 23  0  0  0  0  0  0  0  0999 V2000
    0.0000    0.0000    0.0000 C   0  0  0  0  0  0  0  0  0  0  0  0
    0.0000    0.0000    0.0000 C   0  0  0  0  0  0  0  0  0  0  0  0
    0.0000    0.0000    0.0000 C   0  0  0  0  0  0  0  0  0  0  0  0
    0.0000    0.0000    0.0000 C   0  0  0  0  0  0  0  0  0  0  0  0
    0.0000    0.0000    0.0000 C   0  0  0  0  0  0  0  0  0  0  0  0
    0.0000    0.0000    0.0000 C   0  0  0  0  0  0  0  0  0  0  0  0
    0.0000    0.0000    0.0000 C   0  0  0  0  0  0  0  0  0  0  0  0
    0.0000    0.0000    0.0000 N   0  0  0  0  0  0  0  0  0  0  0  0
    0.0000    0.0000    0.0000 C   0  0  0  0  0  0  0  0  0  0  0  0
    0.0000    0.0000    0.0000 N   0  0  0  0  0  0  0  0  0  0  0  0
    0.0000    0.0000    0.0000 N   0  0  0  0  0  0  0  0  0  0  0  0
    0.0000    0.0000    0.0000 C   0  0  0  0  0  0  0  0  0  0  0  0
    0.0000    0.0000    0.0000 N   0  0  0  0  0  0  0  0  0  0  0  0
    0.0000    0.0000    0.0000 C   0  0  0  0  0  0  0  0  0  0  0  0
    0.0000    0.0000    0.0000 C   0  0  0  0  0  0  0  0  0  0  0  0
    0.0000    0.0000    0.0000 C   0  0  0  0  0  0  0  0  0  0  0  0
    0.0000    0.0000    0.0000 C   0  0  0  0  0  0  0  0  0  0  0  0
    0.0000    0.0000    0.0000 C   0  0  0  0  0  0  0  0  0  0  0  0
    0.0000    0.0000    0.0000 C   0  0  0  0  0  0  0  0  0  0  0  0
    0.0000    0.0000    0.0000 O   0  0  0  0  0  0  0  0  0  0  0  0
    0.0000    0.0000    0.0000 C   0  0  0  0  0  0  0  0  0  0  0  0
  1  2  1  0
  2  3  2  0
  3  4  1  0
  4  5  1  0
  5  6  1  0
  6  7  2  0
  7  8  1  0
  8  9  2  0
  9 10  1  0
  9 11  1  0
 11 12  2  0
 12 13  1  0
  4 14  2  0
 14 15  1  0
 15 16  1  0
 16 17  1  0
 17 18  1  0
 17 19  1  0
 17 20  1  0
 20 21  1  0
 21  2  1  0
 12  6  1  0
 21 15  2  0
M  END
>  <pIC50>  (41) 
6.72

>  <ChEMBL_ID>  (41) 
CHEMBL291540

>  <document_journal>  (41) 
J. Med. Chem.

>  <bao_endpoint>  (41) 
BAO_0000190

>  <potential_duplicate>  (41) 
False

>  <uo_units>  (41) 
UO_0000065

>  <canonical_smiles>  (41) 
Cc1cc(Cc2cnc(N)nc2N)cc3CC(C)(C)Oc13

>  <parent_molecule_chembl_id>  (41) 
CHEMBL291540

>  <assay_type>  (41) 
B

>  <src_id>  (41) 
1

>  <ligand_efficiency>  (41) 
{u'le': u'0.44', u'bei': u'23.64', u'sei': u'7.72', u'lle': u'4'}

>  <standard_flag>  (41) 
True

>  <molecule_chembl_id>  (41) 
CHEMBL291540

>  <target_organism>  (41) 
Homo sapiens

>  <standard_units>  (41) 
nM

>  <record_id>  (41) 
101752

>  <document_chembl_id>  (41) 
CHEMBL1124568

>  <bao_format>  (41) 
BAO_0000357

>  <data_validity_description>  (41) 
None

>  <activity_id>  (41) 
284388

>  <standard_type>  (41) 
IC50

>  <target_chembl_id>  (41) 
CHEMBL202

>  <data_validity_comment>  (41) 
None

>  <published_value>  (41) 
1.9E-7

>  <document_year>  (41) 
1989

>  <target_pref_name>  (41) 
Dihydrofolate reductase

>  <assay_chembl_id>  (41) 
CHEMBL667004

>  <standard_relation>  (41) 
=

>  <assay_description>  (41) 
In vitro inhibition of dihydrofolate reductase of Neisseria gonorrhoeae

>  <published_relation>  (41) 
=

>  <standard_value>  (41) 
190

>  <qudt_units>  (41) 
http://www.openphacts.org/units/Nanomolar

>  <target_tax_id>  (41) 
9606

>  <bao_label>  (41) 
single protein format

>  <published_units>  (41) 
M

>  <pchembl_value>  (41) 
6.72

>  <published_type>  (41) 
I50

>  <activity_comment>  (41) 
None

$$$$

     RDKit          

 25 26  0  0  0  0  0  0  0  0999 V2000
    0.0000    0.0000    0.0000 C   0  0  0  0  0  0  0  0  0  0  0  0
    0.0000    0.0000    0.0000 O   0  0  0  0  0  0  0  0  0  0  0  0
    0.0000    0.0000    0.0000 C   0  0  0  0  0  0  0  0  0  0  0  0
    0.0000    0.0000    0.0000 C   0  0  0  0  0  0  0  0  0  0  0  0
    0.0000    0.0000    0.0000 C   0  0  0  0  0  0  0  0  0  0  0  0
    0.0000    0.0000    0.0000 C   0  0  0  0  0  0  0  0  0  0  0  0
    0.0000    0.0000    0.0000 O   0  0  0  0  0  0  0  0  0  0  0  0
    0.0000    0.0000    0.0000 C   0  0  0  0  0  0  0  0  0  0  0  0
    0.0000    0.0000    0.0000 C   0  0  0  0  0  0  0  0  0  0  0  0
    0.0000    0.0000    0.0000 C   0  0  0  0  0  0  0  0  0  0  0  0
    0.0000    0.0000    0.0000 C   0  0  0  0  0  0  0  0  0  0  0  0
    0.0000    0.0000    0.0000 C   0  0  0  0  0  0  0  0  0  0  0  0
    0.0000    0.0000    0.0000 O   0  0  0  0  0  0  0  0  0  0  0  0
    0.0000    0.0000    0.0000 O   0  0  0  0  0  0  0  0  0  0  0  0
    0.0000    0.0000    0.0000 C   0  0  0  0  0  0  0  0  0  0  0  0
    0.0000    0.0000    0.0000 C   0  0  0  0  0  0  0  0  0  0  0  0
    0.0000    0.0000    0.0000 C   0  0  0  0  0  0  0  0  0  0  0  0
    0.0000    0.0000    0.0000 C   0  0  0  0  0  0  0  0  0  0  0  0
    0.0000    0.0000    0.0000 C   0  0  0  0  0  0  0  0  0  0  0  0
    0.0000    0.0000    0.0000 N   0  0  0  0  0  0  0  0  0  0  0  0
    0.0000    0.0000    0.0000 C   0  0  0  0  0  0  0  0  0  0  0  0
    0.0000    0.0000    0.0000 N   0  0  0  0  0  0  0  0  0  0  0  0
    0.0000    0.0000    0.0000 N   0  0  0  0  0  0  0  0  0  0  0  0
    0.0000    0.0000    0.0000 C   0  0  0  0  0  0  0  0  0  0  0  0
    0.0000    0.0000    0.0000 N   0  0  0  0  0  0  0  0  0  0  0  0
  1  2  1  0
  2  3  1  0
  3  4  2  0
  4  5  1  0
  5  6  2  0
  6  7  1  0
  7  8  1  0
  8  9  1  0
  9 10  1  0
 10 11  1  0
 11 12  1  0
 12 13  2  0
 12 14  1  0
  6 15  1  0
 15 16  2  0
 16 17  1  0
 17 18  1  0
 18 19  2  0
 19 20  1  0
 20 21  2  0
 21 22  1  0
 21 23  1  0
 23 24  2  0
 24 25  1  0
 16  3  1  0
 24 18  1  0
M  END
>  <pIC50>  (42) 
5.16666666667

>  <ChEMBL_ID>  (42) 
CHEMBL37520

>  <document_journal>  (42) 
J. Med. Chem.

>  <bao_endpoint>  (42) 
BAO_0000190

>  <potential_duplicate>  (42) 
False

>  <uo_units>  (42) 
UO_0000065

>  <canonical_smiles>  (42) 
COc1ccc(OCCCCC(=O)O)cc1Cc2cnc(N)nc2N

>  <parent_molecule_chembl_id>  (42) 
CHEMBL37520

>  <assay_type>  (42) 
B

>  <src_id>  (42) 
1

>  <ligand_efficiency>  (42) 
{u'le': u'0.28', u'bei': u'14.71', u'sei': u'3.82', u'lle': u'3.03'}

>  <standard_flag>  (42) 
True

>  <molecule_chembl_id>  (42) 
CHEMBL37520

>  <target_organism>  (42) 
Homo sapiens

>  <standard_units>  (42) 
nM

>  <record_id>  (42) 
55447

>  <document_chembl_id>  (42) 
CHEMBL1149100

>  <bao_format>  (42) 
BAO_0000357

>  <data_validity_description>  (42) 
None

>  <activity_id>  (42) 
289045

>  <standard_type>  (42) 
IC50

>  <target_chembl_id>  (42) 
CHEMBL202

>  <data_validity_comment>  (42) 
None

>  <published_value>  (42) 
8000

>  <document_year>  (42) 
2004

>  <target_pref_name>  (42) 
Dihydrofolate reductase

>  <assay_chembl_id>  (42) 
CHEMBL668097

>  <standard_relation>  (42) 
=

>  <assay_description>  (42) 
Inhibitory concentration against dihydrofolate reductace enzyme of Cryptosporidium parvum of human origin

>  <published_relation>  (42) 
=

>  <standard_value>  (42) 
8000

>  <qudt_units>  (42) 
http://www.openphacts.org/units/Nanomolar

>  <target_tax_id>  (42) 
9606

>  <bao_label>  (42) 
single protein format

>  <published_units>  (42) 
nM

>  <pchembl_value>  (42) 
5.1

>  <published_type>  (42) 
IC50

>  <activity_comment>  (42) 
None

$$$$

     RDKit          

 22 24  0  0  0  0  0  0  0  0999 V2000
    0.0000    0.0000    0.0000 C   0  0  0  0  0  0  0  0  0  0  0  0
    0.0000    0.0000    0.0000 C   0  0  0  0  0  0  0  0  0  0  0  0
    0.0000    0.0000    0.0000 C   0  0  0  0  0  0  0  0  0  0  0  0
    0.0000    0.0000    0.0000 C   0  0  0  0  0  0  0  0  0  0  0  0
    0.0000    0.0000    0.0000 C   0  0  0  0  0  0  0  0  0  0  0  0
    0.0000    0.0000    0.0000 C   0  0  0  0  0  0  0  0  0  0  0  0
    0.0000    0.0000    0.0000 C   0  0  0  0  0  0  0  0  0  0  0  0
    0.0000    0.0000    0.0000 C   0  0  0  0  0  0  0  0  0  0  0  0
    0.0000    0.0000    0.0000 C   0  0  0  0  0  0  0  0  0  0  0  0
    0.0000    0.0000    0.0000 N   0  0  0  0  0  0  0  0  0  0  0  0
    0.0000    0.0000    0.0000 C   0  0  0  0  0  0  0  0  0  0  0  0
    0.0000    0.0000    0.0000 N   0  0  0  0  0  0  0  0  0  0  0  0
    0.0000    0.0000    0.0000 N   0  0  0  0  0  0  0  0  0  0  0  0
    0.0000    0.0000    0.0000 C   0  0  0  0  0  0  0  0  0  0  0  0
    0.0000    0.0000    0.0000 N   0  0  0  0  0  0  0  0  0  0  0  0
    0.0000    0.0000    0.0000 C   0  0  0  0  0  0  0  0  0  0  0  0
    0.0000    0.0000    0.0000 C   0  0  0  0  0  0  0  0  0  0  0  0
    0.0000    0.0000    0.0000 C   0  0  0  0  0  0  0  0  0  0  0  0
    0.0000    0.0000    0.0000 C   0  0  0  0  0  0  0  0  0  0  0  0
    0.0000    0.0000    0.0000 C   0  0  0  0  0  0  0  0  0  0  0  0
    0.0000    0.0000    0.0000 O   0  0  0  0  0  0  0  0  0  0  0  0
    0.0000    0.0000    0.0000 C   0  0  0  0  0  0  0  0  0  0  0  0
  1  2  1  0
  2  3  1  0
  3  4  1  0
  4  5  2  0
  5  6  1  0
  6  7  1  0
  7  8  1  0
  8  9  2  0
  9 10  1  0
 10 11  2  0
 11 12  1  0
 11 13  1  0
 13 14  2  0
 14 15  1  0
  6 16  2  0
 16 17  1  0
 17 18  1  0
 18 19  1  0
 19 20  1  0
 19 21  1  0
 21 22  1  0
 22  4  1  0
 14  8  1  0
 22 17  2  0
M  END
>  <pIC50>  (43) 
7.18

>  <ChEMBL_ID>  (43) 
CHEMBL61356

>  <document_journal>  (43) 
J. Med. Chem.

>  <bao_endpoint>  (43) 
BAO_0000190

>  <potential_duplicate>  (43) 
False

>  <uo_units>  (43) 
UO_0000065

>  <canonical_smiles>  (43) 
CCCc1cc(Cc2cnc(N)nc2N)cc3CC(C)Oc13

>  <parent_molecule_chembl_id>  (43) 
CHEMBL61356

>  <assay_type>  (43) 
B

>  <src_id>  (43) 
1

>  <ligand_efficiency>  (43) 
{u'le': u'0.45', u'bei': u'24.06', u'sei': u'8.25', u'lle': u'3.75'}

>  <standard_flag>  (43) 
True

>  <molecule_chembl_id>  (43) 
CHEMBL61356

>  <target_organism>  (43) 
Homo sapiens

>  <standard_units>  (43) 
nM

>  <record_id>  (43) 
101754

>  <document_chembl_id>  (43) 
CHEMBL1124568

>  <bao_format>  (43) 
BAO_0000357

>  <data_validity_description>  (43) 
None

>  <activity_id>  (43) 
295430

>  <standard_type>  (43) 
IC50

>  <target_chembl_id>  (43) 
CHEMBL202

>  <data_validity_comment>  (43) 
None

>  <published_value>  (43) 
6.6E-8

>  <document_year>  (43) 
1989

>  <target_pref_name>  (43) 
Dihydrofolate reductase

>  <assay_chembl_id>  (43) 
CHEMBL667004

>  <standard_relation>  (43) 
=

>  <assay_description>  (43) 
In vitro inhibition of dihydrofolate reductase of Neisseria gonorrhoeae

>  <published_relation>  (43) 
=

>  <standard_value>  (43) 
66

>  <qudt_units>  (43) 
http://www.openphacts.org/units/Nanomolar

>  <target_tax_id>  (43) 
9606

>  <bao_label>  (43) 
single protein format

>  <published_units>  (43) 
M

>  <pchembl_value>  (43) 
7.18

>  <published_type>  (43) 
I50

>  <activity_comment>  (43) 
None

$$$$

     RDKit          

 23 25  0  0  0  0  0  0  0  0999 V2000
    0.0000    0.0000    0.0000 C   0  0  0  0  0  0  0  0  0  0  0  0
    0.0000    0.0000    0.0000 C   0  0  0  0  0  0  0  0  0  0  0  0
    0.0000    0.0000    0.0000 C   0  0  0  0  0  0  0  0  0  0  0  0
    0.0000    0.0000    0.0000 C   0  0  0  0  0  0  0  0  0  0  0  0
    0.0000    0.0000    0.0000 C   0  0  0  0  0  0  0  0  0  0  0  0
    0.0000    0.0000    0.0000 C   0  0  0  0  0  0  0  0  0  0  0  0
    0.0000    0.0000    0.0000 C   0  0  0  0  0  0  0  0  0  0  0  0
    0.0000    0.0000    0.0000 C   0  0  0  0  0  0  0  0  0  0  0  0
    0.0000    0.0000    0.0000 C   0  0  0  0  0  0  0  0  0  0  0  0
    0.0000    0.0000    0.0000 N   0  0  0  0  0  0  0  0  0  0  0  0
    0.0000    0.0000    0.0000 C   0  0  0  0  0  0  0  0  0  0  0  0
    0.0000    0.0000    0.0000 N   0  0  0  0  0  0  0  0  0  0  0  0
    0.0000    0.0000    0.0000 N   0  0  0  0  0  0  0  0  0  0  0  0
    0.0000    0.0000    0.0000 C   0  0  0  0  0  0  0  0  0  0  0  0
    0.0000    0.0000    0.0000 N   0  0  0  0  0  0  0  0  0  0  0  0
    0.0000    0.0000    0.0000 C   0  0  0  0  0  0  0  0  0  0  0  0
    0.0000    0.0000    0.0000 C   0  0  0  0  0  0  0  0  0  0  0  0
    0.0000    0.0000    0.0000 C   0  0  0  0  0  0  0  0  0  0  0  0
    0.0000    0.0000    0.0000 C   0  0  0  0  0  0  0  0  0  0  0  0
    0.0000    0.0000    0.0000 C   0  0  0  0  0  0  0  0  0  0  0  0
    0.0000    0.0000    0.0000 C   0  0  0  0  0  0  0  0  0  0  0  0
    0.0000    0.0000    0.0000 O   0  0  0  0  0  0  0  0  0  0  0  0
    0.0000    0.0000    0.0000 C   0  0  0  0  0  0  0  0  0  0  0  0
  1  2  1  0
  2  3  1  0
  3  4  1  0
  4  5  2  0
  5  6  1  0
  6  7  1  0
  7  8  1  0
  8  9  2  0
  9 10  1  0
 10 11  2  0
 11 12  1  0
 11 13  1  0
 13 14  2  0
 14 15  1  0
  6 16  2  0
 16 17  1  0
 17 18  1  0
 18 19  1  0
 19 20  1  0
 19 21  1  0
 19 22  1  0
 22 23  1  0
 23  4  1  0
 14  8  1  0
 23 17  2  0
M  END
>  <pIC50>  (44) 
7.34

>  <ChEMBL_ID>  (44) 
CHEMBL301629

>  <document_journal>  (44) 
J. Med. Chem.

>  <bao_endpoint>  (44) 
BAO_0000190

>  <potential_duplicate>  (44) 
False

>  <uo_units>  (44) 
UO_0000065

>  <canonical_smiles>  (44) 
CCCc1cc(Cc2cnc(N)nc2N)cc3CC(C)(C)Oc13

>  <parent_molecule_chembl_id>  (44) 
CHEMBL301629

>  <assay_type>  (44) 
B

>  <src_id>  (44) 
1

>  <ligand_efficiency>  (44) 
{u'le': u'0.44', u'bei': u'23.49', u'sei': u'8.43', u'lle': u'3.71'}

>  <standard_flag>  (44) 
True

>  <molecule_chembl_id>  (44) 
CHEMBL301629

>  <target_organism>  (44) 
Homo sapiens

>  <standard_units>  (44) 
nM

>  <record_id>  (44) 
101747

>  <document_chembl_id>  (44) 
CHEMBL1124568

>  <bao_format>  (44) 
BAO_0000357

>  <data_validity_description>  (44) 
None

>  <activity_id>  (44) 
299258

>  <standard_type>  (44) 
IC50

>  <target_chembl_id>  (44) 
CHEMBL202

>  <data_validity_comment>  (44) 
None

>  <published_value>  (44) 
4.6E-8

>  <document_year>  (44) 
1989

>  <target_pref_name>  (44) 
Dihydrofolate reductase

>  <assay_chembl_id>  (44) 
CHEMBL667004

>  <standard_relation>  (44) 
=

>  <assay_description>  (44) 
In vitro inhibition of dihydrofolate reductase of Neisseria gonorrhoeae

>  <published_relation>  (44) 
=

>  <standard_value>  (44) 
46

>  <qudt_units>  (44) 
http://www.openphacts.org/units/Nanomolar

>  <target_tax_id>  (44) 
9606

>  <bao_label>  (44) 
single protein format

>  <published_units>  (44) 
M

>  <pchembl_value>  (44) 
7.34

>  <published_type>  (44) 
I50

>  <activity_comment>  (44) 
None

$$$$

     RDKit          

 23 25  0  0  0  0  0  0  0  0999 V2000
    0.0000    0.0000    0.0000 C   0  0  0  0  0  0  0  0  0  0  0  0
    0.0000    0.0000    0.0000 C   0  0  0  0  0  0  0  0  0  0  0  0
    0.0000    0.0000    0.0000 C   0  0  0  0  0  0  0  0  0  0  0  0
    0.0000    0.0000    0.0000 C   0  0  0  0  0  0  0  0  0  0  0  0
    0.0000    0.0000    0.0000 C   0  0  0  0  0  0  0  0  0  0  0  0
    0.0000    0.0000    0.0000 C   0  0  0  0  0  0  0  0  0  0  0  0
    0.0000    0.0000    0.0000 C   0  0  0  0  0  0  0  0  0  0  0  0
    0.0000    0.0000    0.0000 C   0  0  0  0  0  0  0  0  0  0  0  0
    0.0000    0.0000    0.0000 C   0  0  0  0  0  0  0  0  0  0  0  0
    0.0000    0.0000    0.0000 N   0  0  0  0  0  0  0  0  0  0  0  0
    0.0000    0.0000    0.0000 C   0  0  0  0  0  0  0  0  0  0  0  0
    0.0000    0.0000    0.0000 N   0  0  0  0  0  0  0  0  0  0  0  0
    0.0000    0.0000    0.0000 N   0  0  0  0  0  0  0  0  0  0  0  0
    0.0000    0.0000    0.0000 C   0  0  0  0  0  0  0  0  0  0  0  0
    0.0000    0.0000    0.0000 N   0  0  0  0  0  0  0  0  0  0  0  0
    0.0000    0.0000    0.0000 C   0  0  0  0  0  0  0  0  0  0  0  0
    0.0000    0.0000    0.0000 C   0  0  0  0  0  0  0  0  0  0  0  0
    0.0000    0.0000    0.0000 C   0  0  0  0  0  0  0  0  0  0  0  0
    0.0000    0.0000    0.0000 C   0  0  0  0  0  0  0  0  0  0  0  0
    0.0000    0.0000    0.0000 C   0  0  0  0  0  0  0  0  0  0  0  0
    0.0000    0.0000    0.0000 C   0  0  0  0  0  0  0  0  0  0  0  0
    0.0000    0.0000    0.0000 O   0  0  0  0  0  0  0  0  0  0  0  0
    0.0000    0.0000    0.0000 C   0  0  0  0  0  0  0  0  0  0  0  0
  1  2  1  0
  2  3  1  0
  3  4  1  0
  4  5  2  0
  5  6  1  0
  6  7  1  0
  7  8  1  0
  8  9  2  0
  9 10  1  0
 10 11  2  0
 11 12  1  0
 11 13  1  0
 13 14  2  0
 14 15  1  0
  6 16  2  0
 16 17  1  0
 17 18  1  0
 18 19  1  0
 18 20  1  0
 20 21  1  0
 20 22  1  0
 22 23  1  0
 23  4  1  0
 14  8  1  0
 23 17  2  0
M  END
>  <pIC50>  (45) 
7.85

>  <ChEMBL_ID>  (45) 
CHEMBL61857

>  <document_journal>  (45) 
J. Med. Chem.

>  <bao_endpoint>  (45) 
BAO_0000190

>  <potential_duplicate>  (45) 
False

>  <uo_units>  (45) 
UO_0000065

>  <canonical_smiles>  (45) 
CCCc1cc(Cc2cnc(N)nc2N)cc3C(C)C(C)Oc13

>  <parent_molecule_chembl_id>  (45) 
CHEMBL61857

>  <assay_type>  (45) 
B

>  <src_id>  (45) 
1

>  <ligand_efficiency>  (45) 
{u'le': u'0.47', u'bei': u'25.14', u'sei': u'9.02', u'lle': u'4.1'}

>  <standard_flag>  (45) 
True

>  <molecule_chembl_id>  (45) 
CHEMBL61857

>  <target_organism>  (45) 
Homo sapiens

>  <standard_units>  (45) 
nM

>  <record_id>  (45) 
101746

>  <document_chembl_id>  (45) 
CHEMBL1124568

>  <bao_format>  (45) 
BAO_0000357

>  <data_validity_description>  (45) 
None

>  <activity_id>  (45) 
301780

>  <standard_type>  (45) 
IC50

>  <target_chembl_id>  (45) 
CHEMBL202

>  <data_validity_comment>  (45) 
None

>  <published_value>  (45) 
1.4E-8

>  <document_year>  (45) 
1989

>  <target_pref_name>  (45) 
Dihydrofolate reductase

>  <assay_chembl_id>  (45) 
CHEMBL667004

>  <standard_relation>  (45) 
=

>  <assay_description>  (45) 
In vitro inhibition of dihydrofolate reductase of Neisseria gonorrhoeae

>  <published_relation>  (45) 
=

>  <standard_value>  (45) 
14

>  <qudt_units>  (45) 
http://www.openphacts.org/units/Nanomolar

>  <target_tax_id>  (45) 
9606

>  <bao_label>  (45) 
single protein format

>  <published_units>  (45) 
M

>  <pchembl_value>  (45) 
7.85

>  <published_type>  (45) 
I50

>  <activity_comment>  (45) 
None

$$$$

     RDKit          

 21 23  0  0  0  0  0  0  0  0999 V2000
    0.0000    0.0000    0.0000 C   0  0  0  0  0  0  0  0  0  0  0  0
    0.0000    0.0000    0.0000 C   0  0  0  0  0  0  0  0  0  0  0  0
    0.0000    0.0000    0.0000 C   0  0  0  0  0  0  0  0  0  0  0  0
    0.0000    0.0000    0.0000 C   0  0  0  0  0  0  0  0  0  0  0  0
    0.0000    0.0000    0.0000 C   0  0  0  0  0  0  0  0  0  0  0  0
    0.0000    0.0000    0.0000 C   0  0  0  0  0  0  0  0  0  0  0  0
    0.0000    0.0000    0.0000 C   0  0  0  0  0  0  0  0  0  0  0  0
    0.0000    0.0000    0.0000 C   0  0  0  0  0  0  0  0  0  0  0  0
    0.0000    0.0000    0.0000 N   0  0  0  0  0  0  0  0  0  0  0  0
    0.0000    0.0000    0.0000 C   0  0  0  0  0  0  0  0  0  0  0  0
    0.0000    0.0000    0.0000 N   0  0  0  0  0  0  0  0  0  0  0  0
    0.0000    0.0000    0.0000 N   0  0  0  0  0  0  0  0  0  0  0  0
    0.0000    0.0000    0.0000 C   0  0  0  0  0  0  0  0  0  0  0  0
    0.0000    0.0000    0.0000 N   0  0  0  0  0  0  0  0  0  0  0  0
    0.0000    0.0000    0.0000 C   0  0  0  0  0  0  0  0  0  0  0  0
    0.0000    0.0000    0.0000 C   0  0  0  0  0  0  0  0  0  0  0  0
    0.0000    0.0000    0.0000 C   0  0  0  0  0  0  0  0  0  0  0  0
    0.0000    0.0000    0.0000 C   0  0  0  0  0  0  0  0  0  0  0  0
    0.0000    0.0000    0.0000 C   0  0  0  0  0  0  0  0  0  0  0  0
    0.0000    0.0000    0.0000 O   0  0  0  0  0  0  0  0  0  0  0  0
    0.0000    0.0000    0.0000 C   0  0  0  0  0  0  0  0  0  0  0  0
  1  2  1  0
  2  3  1  0
  3  4  2  0
  4  5  1  0
  5  6  1  0
  6  7  1  0
  7  8  2  0
  8  9  1  0
  9 10  2  0
 10 11  1  0
 10 12  1  0
 12 13  2  0
 13 14  1  0
  5 15  2  0
 15 16  1  0
 16 17  1  0
 17 18  1  0
 18 19  1  0
 18 20  1  0
 20 21  1  0
 21  3  1  0
 13  7  1  0
 21 16  2  0
M  END
>  <pIC50>  (46) 
6.96

>  <ChEMBL_ID>  (46) 
CHEMBL58481

>  <document_journal>  (46) 
J. Med. Chem.

>  <bao_endpoint>  (46) 
BAO_0000190

>  <potential_duplicate>  (46) 
False

>  <uo_units>  (46) 
UO_0000065

>  <canonical_smiles>  (46) 
CCc1cc(Cc2cnc(N)nc2N)cc3CC(C)Oc13

>  <parent_molecule_chembl_id>  (46) 
CHEMBL58481

>  <assay_type>  (46) 
B

>  <src_id>  (46) 
1

>  <ligand_efficiency>  (46) 
{u'le': u'0.45', u'bei': u'24.47', u'sei': u'7.99', u'lle': u'3.99'}

>  <standard_flag>  (46) 
True

>  <molecule_chembl_id>  (46) 
CHEMBL58481

>  <target_organism>  (46) 
Homo sapiens

>  <standard_units>  (46) 
nM

>  <record_id>  (46) 
101755

>  <document_chembl_id>  (46) 
CHEMBL1124568

>  <bao_format>  (46) 
BAO_0000357

>  <data_validity_description>  (46) 
None

>  <activity_id>  (46) 
304181

>  <standard_type>  (46) 
IC50

>  <target_chembl_id>  (46) 
CHEMBL202

>  <data_validity_comment>  (46) 
None

>  <published_value>  (46) 
1.1E-7

>  <document_year>  (46) 
1989

>  <target_pref_name>  (46) 
Dihydrofolate reductase

>  <assay_chembl_id>  (46) 
CHEMBL667004

>  <standard_relation>  (46) 
=

>  <assay_description>  (46) 
In vitro inhibition of dihydrofolate reductase of Neisseria gonorrhoeae

>  <published_relation>  (46) 
=

>  <standard_value>  (46) 
110

>  <qudt_units>  (46) 
http://www.openphacts.org/units/Nanomolar

>  <target_tax_id>  (46) 
9606

>  <bao_label>  (46) 
single protein format

>  <published_units>  (46) 
M

>  <pchembl_value>  (46) 
6.96

>  <published_type>  (46) 
I50

>  <activity_comment>  (46) 
None

$$$$

     RDKit          

 25 28  0  0  0  0  0  0  0  0999 V2000
    0.0000    0.0000    0.0000 C   0  0  0  0  0  0  0  0  0  0  0  0
    0.0000    0.0000    0.0000 O   0  0  0  0  0  0  0  0  0  0  0  0
    0.0000    0.0000    0.0000 C   0  0  0  0  0  0  0  0  0  0  0  0
    0.0000    0.0000    0.0000 C   0  0  0  0  0  0  0  0  0  0  0  0
    0.0000    0.0000    0.0000 C   0  0  0  0  0  0  0  0  0  0  0  0
    0.0000    0.0000    0.0000 C   0  0  0  0  0  0  0  0  0  0  0  0
    0.0000    0.0000    0.0000 C   0  0  0  0  0  0  0  0  0  0  0  0
    0.0000    0.0000    0.0000 N   0  0  0  0  0  0  0  0  0  0  0  0
    0.0000    0.0000    0.0000 C   0  0  0  0  0  0  0  0  0  0  0  0
    0.0000    0.0000    0.0000 C   0  0  0  0  0  0  0  0  0  0  0  0
    0.0000    0.0000    0.0000 C   0  0  0  0  0  0  0  0  0  0  0  0
    0.0000    0.0000    0.0000 N   0  0  0  0  0  0  0  0  0  0  0  0
    0.0000    0.0000    0.0000 C   0  0  0  0  0  0  0  0  0  0  0  0
    0.0000    0.0000    0.0000 N   0  0  0  0  0  0  0  0  0  0  0  0
    0.0000    0.0000    0.0000 C   0  0  0  0  0  0  0  0  0  0  0  0
    0.0000    0.0000    0.0000 N   0  0  0  0  0  0  0  0  0  0  0  0
    0.0000    0.0000    0.0000 N   0  0  0  0  0  0  0  0  0  0  0  0
    0.0000    0.0000    0.0000 C   0  0  0  0  0  0  0  0  0  0  0  0
    0.0000    0.0000    0.0000 N   0  0  0  0  0  0  0  0  0  0  0  0
    0.0000    0.0000    0.0000 C   0  0  0  0  0  0  0  0  0  0  0  0
    0.0000    0.0000    0.0000 C   0  0  0  0  0  0  0  0  0  0  0  0
    0.0000    0.0000    0.0000 C   0  0  0  0  0  0  0  0  0  0  0  0
    0.0000    0.0000    0.0000 C   0  0  0  0  0  0  0  0  0  0  0  0
    0.0000    0.0000    0.0000 C   0  0  0  0  0  0  0  0  0  0  0  0
    0.0000    0.0000    0.0000 C   0  0  0  0  0  0  0  0  0  0  0  0
  1  2  1  0
  2  3  1  0
  3  4  2  0
  4  5  1  0
  5  6  2  0
  6  7  1  0
  7  8  1  0
  8  9  1  0
  9 10  1  0
 10 11  1  0
 11 12  2  0
 12 13  1  0
 13 14  2  0
 14 15  1  0
 15 16  1  0
 15 17  2  0
 17 18  1  0
 18 19  1  0
 18 20  2  0
 20 21  1  0
 21 22  2  0
 22 23  1  0
  6 24  1  0
 24 25  2  0
 25  3  1  0
 23  8  1  0
 22 11  1  0
 20 13  1  0
M  END
>  <pIC50>  (47) 
4.57

>  <ChEMBL_ID>  (47) 
CHEMBL146925

>  <document_journal>  (47) 
J. Med. Chem.

>  <bao_endpoint>  (47) 
BAO_0000190

>  <potential_duplicate>  (47) 
False

>  <uo_units>  (47) 
UO_0000065

>  <canonical_smiles>  (47) 
COc1ccc(CN2CCc3nc4nc(N)nc(N)c4cc3C2)cc1

>  <parent_molecule_chembl_id>  (47) 
CHEMBL146925

>  <assay_type>  (47) 
B

>  <src_id>  (47) 
1

>  <ligand_efficiency>  (47) 
{u'le': u'0.25', u'bei': u'13.58', u'sei': u'4.43', u'lle': u'2.71'}

>  <standard_flag>  (47) 
True

>  <molecule_chembl_id>  (47) 
CHEMBL146925

>  <target_organism>  (47) 
Homo sapiens

>  <standard_units>  (47) 
nM

>  <record_id>  (47) 
290417

>  <document_chembl_id>  (47) 
CHEMBL1135650

>  <bao_format>  (47) 
BAO_0000357

>  <data_validity_description>  (47) 
None

>  <activity_id>  (47) 
391527

>  <standard_type>  (47) 
IC50

>  <target_chembl_id>  (47) 
CHEMBL202

>  <data_validity_comment>  (47) 
None

>  <published_value>  (47) 
27

>  <document_year>  (47) 
2002

>  <target_pref_name>  (47) 
Dihydrofolate reductase

>  <assay_chembl_id>  (47) 
CHEMBL668440

>  <standard_relation>  (47) 
=

>  <assay_description>  (47) 
Inhibitory activity against recombinant human Dihydrofolate reductase

>  <published_relation>  (47) 
=

>  <standard_value>  (47) 
27000

>  <qudt_units>  (47) 
http://www.openphacts.org/units/Nanomolar

>  <target_tax_id>  (47) 
9606

>  <bao_label>  (47) 
single protein format

>  <published_units>  (47) 
uM

>  <pchembl_value>  (47) 
4.57

>  <published_type>  (47) 
IC50

>  <activity_comment>  (47) 
None

$$$$

     RDKit          

 23 26  0  0  0  0  0  0  0  0999 V2000
    0.0000    0.0000    0.0000 N   0  0  0  0  0  0  0  0  0  0  0  0
    0.0000    0.0000    0.0000 C   0  0  0  0  0  0  0  0  0  0  0  0
    0.0000    0.0000    0.0000 N   0  0  0  0  0  0  0  0  0  0  0  0
    0.0000    0.0000    0.0000 C   0  0  0  0  0  0  0  0  0  0  0  0
    0.0000    0.0000    0.0000 N   0  0  0  0  0  0  0  0  0  0  0  0
    0.0000    0.0000    0.0000 C   0  0  0  0  0  0  0  0  0  0  0  0
    0.0000    0.0000    0.0000 C   0  0  0  0  0  0  0  0  0  0  0  0
    0.0000    0.0000    0.0000 C   0  0  0  0  0  0  0  0  0  0  0  0
    0.0000    0.0000    0.0000 C   0  0  0  0  0  0  0  0  0  0  0  0
    0.0000    0.0000    0.0000 N   0  0  0  0  0  0  0  0  0  0  0  0
    0.0000    0.0000    0.0000 C   0  0  0  0  0  0  0  0  0  0  0  0
    0.0000    0.0000    0.0000 C   0  0  0  0  0  0  0  0  0  0  0  0
    0.0000    0.0000    0.0000 C   0  0  0  0  0  0  0  0  0  0  0  0
    0.0000    0.0000    0.0000 C   0  0  0  0  0  0  0  0  0  0  0  0
    0.0000    0.0000    0.0000 C   0  0  0  0  0  0  0  0  0  0  0  0
    0.0000    0.0000    0.0000 C   0  0  0  0  0  0  0  0  0  0  0  0
    0.0000    0.0000    0.0000 C   0  0  0  0  0  0  0  0  0  0  0  0
    0.0000    0.0000    0.0000 C   0  0  0  0  0  0  0  0  0  0  0  0
    0.0000    0.0000    0.0000 C   0  0  0  0  0  0  0  0  0  0  0  0
    0.0000    0.0000    0.0000 C   0  0  0  0  0  0  0  0  0  0  0  0
    0.0000    0.0000    0.0000 N   0  0  0  0  0  0  0  0  0  0  0  0
    0.0000    0.0000    0.0000 C   0  0  0  0  0  0  0  0  0  0  0  0
    0.0000    0.0000    0.0000 N   0  0  0  0  0  0  0  0  0  0  0  0
  1  2  1  0
  2  3  2  0
  3  4  1  0
  4  5  1  0
  4  6  2  0
  6  7  1  0
  7  8  2  0
  8  9  1  0
  9 10  1  0
 10 11  1  0
 11 12  1  0
 12 13  2  0
 13 14  1  0
 14 15  2  0
 15 16  1  0
 16 17  2  0
 10 18  1  0
 18 19  1  0
 19 20  1  0
 20 21  2  0
 21 22  1  0
 22 23  2  0
 23  2  1  0
 22  6  1  0
 20  8  1  0
 17 12  1  0
M  END
>  <pIC50>  (48) 
4.5

>  <ChEMBL_ID>  (48) 
CHEMBL421959

>  <document_journal>  (48) 
J. Med. Chem.

>  <bao_endpoint>  (48) 
BAO_0000190

>  <potential_duplicate>  (48) 
False

>  <uo_units>  (48) 
UO_0000065

>  <canonical_smiles>  (48) 
Nc1nc(N)c2cc3CN(Cc4ccccc4)CCc3nc2n1

>  <parent_molecule_chembl_id>  (48) 
CHEMBL421959

>  <assay_type>  (48) 
B

>  <src_id>  (48) 
1

>  <ligand_efficiency>  (48) 
{u'le': u'0.27', u'bei': u'14.67', u'sei': u'4.78', u'lle': u'2.62'}

>  <standard_flag>  (48) 
True

>  <molecule_chembl_id>  (48) 
CHEMBL421959

>  <target_organism>  (48) 
Homo sapiens

>  <standard_units>  (48) 
nM

>  <record_id>  (48) 
290421

>  <document_chembl_id>  (48) 
CHEMBL1135650

>  <bao_format>  (48) 
BAO_0000357

>  <data_validity_description>  (48) 
None

>  <activity_id>  (48) 
404793

>  <standard_type>  (48) 
IC50

>  <target_chembl_id>  (48) 
CHEMBL202

>  <data_validity_comment>  (48) 
None

>  <published_value>  (48) 
32

>  <document_year>  (48) 
2002

>  <target_pref_name>  (48) 
Dihydrofolate reductase

>  <assay_chembl_id>  (48) 
CHEMBL668440

>  <standard_relation>  (48) 
=

>  <assay_description>  (48) 
Inhibitory activity against recombinant human Dihydrofolate reductase

>  <published_relation>  (48) 
=

>  <standard_value>  (48) 
32000

>  <qudt_units>  (48) 
http://www.openphacts.org/units/Nanomolar

>  <target_tax_id>  (48) 
9606

>  <bao_label>  (48) 
single protein format

>  <published_units>  (48) 
uM

>  <pchembl_value>  (48) 
4.5

>  <published_type>  (48) 
IC50

>  <activity_comment>  (48) 
None

$$$$

     RDKit          

 26 29  0  0  0  0  0  0  0  0999 V2000
    0.0000    0.0000    0.0000 N   0  0  0  0  0  0  0  0  0  0  0  0
    0.0000    0.0000    0.0000 C   0  0  0  0  0  0  0  0  0  0  0  0
    0.0000    0.0000    0.0000 N   0  0  0  0  0  0  0  0  0  0  0  0
    0.0000    0.0000    0.0000 C   0  0  0  0  0  0  0  0  0  0  0  0
    0.0000    0.0000    0.0000 N   0  0  0  0  0  0  0  0  0  0  0  0
    0.0000    0.0000    0.0000 C   0  0  0  0  0  0  0  0  0  0  0  0
    0.0000    0.0000    0.0000 C   0  0  0  0  0  0  0  0  0  0  0  0
    0.0000    0.0000    0.0000 C   0  0  0  0  0  0  0  0  0  0  0  0
    0.0000    0.0000    0.0000 C   0  0  0  0  0  0  0  0  0  0  0  0
    0.0000    0.0000    0.0000 N   0  0  0  0  0  0  0  0  0  0  0  0
    0.0000    0.0000    0.0000 C   0  0  0  0  0  0  0  0  0  0  0  0
    0.0000    0.0000    0.0000 C   0  0  0  0  0  0  0  0  0  0  0  0
    0.0000    0.0000    0.0000 C   0  0  0  0  0  0  0  0  0  0  0  0
    0.0000    0.0000    0.0000 N   0  0  0  0  0  0  0  0  0  0  0  0
    0.0000    0.0000    0.0000 C   0  0  0  0  0  0  0  0  0  0  0  0
    0.0000    0.0000    0.0000 N   0  0  0  0  0  0  0  0  0  0  0  0
    0.0000    0.0000    0.0000 C   0  0  0  0  0  0  0  0  0  0  0  0
    0.0000    0.0000    0.0000 O   0  0  0  0  0  0  0  0  0  0  0  0
    0.0000    0.0000    0.0000 O   0  0  0  0  0  0  0  0  0  0  0  0
    0.0000    0.0000    0.0000 C   0  0  0  0  0  0  0  0  0  0  0  0
    0.0000    0.0000    0.0000 C   0  0  0  0  0  0  0  0  0  0  0  0
    0.0000    0.0000    0.0000 C   0  0  0  0  0  0  0  0  0  0  0  0
    0.0000    0.0000    0.0000 C   0  0  0  0  0  0  0  0  0  0  0  0
    0.0000    0.0000    0.0000 C   0  0  0  0  0  0  0  0  0  0  0  0
    0.0000    0.0000    0.0000 C   0  0  0  0  0  0  0  0  0  0  0  0
    0.0000    0.0000    0.0000 C   0  0  0  0  0  0  0  0  0  0  0  0
  1  2  1  0
  2  3  2  0
  3  4  1  0
  4  5  1  0
  4  6  2  0
  6  7  1  0
  7  8  2  0
  8  9  1  0
  9 10  1  0
 10 11  1  0
 11 12  1  0
 12 13  1  0
 13 14  2  0
 14 15  1  0
 15 16  2  0
 10 17  1  0
 17 18  2  0
 17 19  1  0
 19 20  1  0
 20 21  1  0
 21 22  2  0
 22 23  1  0
 23 24  2  0
 24 25  1  0
 25 26  2  0
 16  2  1  0
 15  6  1  0
 13  8  1  0
 26 21  1  0
M  END
>  <pIC50>  (49) 
4.52

>  <ChEMBL_ID>  (49) 
CHEMBL148599

>  <document_journal>  (49) 
J. Med. Chem.

>  <bao_endpoint>  (49) 
BAO_0000190

>  <potential_duplicate>  (49) 
False

>  <uo_units>  (49) 
UO_0000065

>  <canonical_smiles>  (49) 
Nc1nc(N)c2cc3CN(CCc3nc2n1)C(=O)OCc4ccccc4

>  <parent_molecule_chembl_id>  (49) 
CHEMBL148599

>  <assay_type>  (49) 
B

>  <src_id>  (49) 
1

>  <ligand_efficiency>  (49) 
{u'le': u'0.24', u'bei': u'12.91', u'sei': u'3.76', u'lle': u'2.74'}

>  <standard_flag>  (49) 
True

>  <molecule_chembl_id>  (49) 
CHEMBL148599

>  <target_organism>  (49) 
Homo sapiens

>  <standard_units>  (49) 
nM

>  <record_id>  (49) 
290418

>  <document_chembl_id>  (49) 
CHEMBL1135650

>  <bao_format>  (49) 
BAO_0000357

>  <data_validity_description>  (49) 
None

>  <activity_id>  (49) 
409585

>  <standard_type>  (49) 
IC50

>  <target_chembl_id>  (49) 
CHEMBL202

>  <data_validity_comment>  (49) 
None

>  <published_value>  (49) 
30

>  <document_year>  (49) 
2002

>  <target_pref_name>  (49) 
Dihydrofolate reductase

>  <assay_chembl_id>  (49) 
CHEMBL668440

>  <standard_relation>  (49) 
=

>  <assay_description>  (49) 
Inhibitory activity against recombinant human Dihydrofolate reductase

>  <published_relation>  (49) 
=

>  <standard_value>  (49) 
30000

>  <qudt_units>  (49) 
http://www.openphacts.org/units/Nanomolar

>  <target_tax_id>  (49) 
9606

>  <bao_label>  (49) 
single protein format

>  <published_units>  (49) 
uM

>  <pchembl_value>  (49) 
4.52

>  <published_type>  (49) 
IC50

>  <activity_comment>  (49) 
None

$$$$

     RDKit          

 35 38  0  0  0  0  0  0  0  0999 V2000
    0.0000    0.0000    0.0000 N   0  0  0  0  0  0  0  0  0  0  0  0
    0.0000    0.0000    0.0000 C   0  0  0  0  0  0  0  0  0  0  0  0
    0.0000    0.0000    0.0000 N   0  0  0  0  0  0  0  0  0  0  0  0
    0.0000    0.0000    0.0000 C   0  0  0  0  0  0  0  0  0  0  0  0
    0.0000    0.0000    0.0000 N   0  0  0  0  0  0  0  0  0  0  0  0
    0.0000    0.0000    0.0000 C   0  0  0  0  0  0  0  0  0  0  0  0
    0.0000    0.0000    0.0000 C   0  0  0  0  0  0  0  0  0  0  0  0
    0.0000    0.0000    0.0000 C   0  0  0  0  0  0  0  0  0  0  0  0
    0.0000    0.0000    0.0000 C   0  0  0  0  0  0  0  0  0  0  0  0
    0.0000    0.0000    0.0000 N   0  0  0  0  0  0  0  0  0  0  0  0
    0.0000    0.0000    0.0000 C   0  0  0  0  0  0  0  0  0  0  0  0
    0.0000    0.0000    0.0000 C   0  0  0  0  0  0  0  0  0  0  0  0
    0.0000    0.0000    0.0000 C   0  0  0  0  0  0  0  0  0  0  0  0
    0.0000    0.0000    0.0000 C   0  0  0  0  0  0  0  0  0  0  0  0
    0.0000    0.0000    0.0000 C   0  0  0  0  0  0  0  0  0  0  0  0
    0.0000    0.0000    0.0000 C   0  0  0  0  0  0  0  0  0  0  0  0
    0.0000    0.0000    0.0000 C   0  0  0  0  0  0  0  0  0  0  0  0
    0.0000    0.0000    0.0000 C   0  0  0  0  0  0  0  0  0  0  0  0
    0.0000    0.0000    0.0000 O   0  0  0  0  0  0  0  0  0  0  0  0
    0.0000    0.0000    0.0000 N   0  0  0  0  0  0  0  0  0  0  0  0
    0.0000    0.0000    0.0000 C   0  0  0  0  0  0  0  0  0  0  0  0
    0.0000    0.0000    0.0000 C   0  0  0  0  0  0  0  0  0  0  0  0
    0.0000    0.0000    0.0000 C   0  0  0  0  0  0  0  0  0  0  0  0
    0.0000    0.0000    0.0000 C   0  0  0  0  0  0  0  0  0  0  0  0
    0.0000    0.0000    0.0000 O   0  0  0  0  0  0  0  0  0  0  0  0
    0.0000    0.0000    0.0000 O   0  0  0  0  0  0  0  0  0  0  0  0
    0.0000    0.0000    0.0000 C   0  0  0  0  0  0  0  0  0  0  0  0
    0.0000    0.0000    0.0000 O   0  0  0  0  0  0  0  0  0  0  0  0
    0.0000    0.0000    0.0000 O   0  0  0  0  0  0  0  0  0  0  0  0
    0.0000    0.0000    0.0000 C   0  0  0  0  0  0  0  0  0  0  0  0
    0.0000    0.0000    0.0000 C   0  0  0  0  0  0  0  0  0  0  0  0
    0.0000    0.0000    0.0000 C   0  0  0  0  0  0  0  0  0  0  0  0
    0.0000    0.0000    0.0000 N   0  0  0  0  0  0  0  0  0  0  0  0
    0.0000    0.0000    0.0000 C   0  0  0  0  0  0  0  0  0  0  0  0
    0.0000    0.0000    0.0000 N   0  0  0  0  0  0  0  0  0  0  0  0
  1  2  1  0
  2  3  2  0
  3  4  1  0
  4  5  1  0
  4  6  2  0
  6  7  1  0
  7  8  2  0
  8  9  1  0
  9 10  1  0
 10 11  1  0
 11 12  1  0
 12 13  2  0
 13 14  1  0
 14 15  2  0
 15 16  1  0
 16 17  2  0
 15 18  1  0
 18 19  2  0
 18 20  1  0
 20 21  1  0
 21 22  1  0
 22 23  1  0
 23 24  1  0
 24 25  2  0
 24 26  1  0
 21 27  1  0
 27 28  2  0
 27 29  1  0
 10 30  1  0
 30 31  1  0
 31 32  1  0
 32 33  2  0
 33 34  1  0
 34 35  2  0
 35  2  1  0
 34  6  1  0
 32  8  1  0
 17 12  1  0
M  END
>  <pIC50>  (50) 
5.27

>  <ChEMBL_ID>  (50) 
CHEMBL422316

>  <document_journal>  (50) 
J. Med. Chem.

>  <bao_endpoint>  (50) 
BAO_0000190

>  <potential_duplicate>  (50) 
False

>  <uo_units>  (50) 
UO_0000065

>  <canonical_smiles>  (50) 
Nc1nc(N)c2cc3CN(Cc4ccc(cc4)C(=O)N[C@@H](CCC(=O)O)C(=O)O)CCc3nc2n1

>  <parent_molecule_chembl_id>  (50) 
CHEMBL422316

>  <assay_type>  (50) 
B

>  <src_id>  (50) 
1

>  <ligand_efficiency>  (50) 
{u'le': u'0.21', u'bei': u'10.99', u'sei': u'2.67', u'lle': u'7.56'}

>  <standard_flag>  (50) 
True

>  <molecule_chembl_id>  (50) 
CHEMBL422316

>  <target_organism>  (50) 
Homo sapiens

>  <standard_units>  (50) 
nM

>  <record_id>  (50) 
290416

>  <document_chembl_id>  (50) 
CHEMBL1135650

>  <bao_format>  (50) 
BAO_0000357

>  <data_validity_description>  (50) 
None

>  <activity_id>  (50) 
413243

>  <standard_type>  (50) 
IC50

>  <target_chembl_id>  (50) 
CHEMBL202

>  <data_validity_comment>  (50) 
None

>  <published_value>  (50) 
5.4

>  <document_year>  (50) 
2002

>  <target_pref_name>  (50) 
Dihydrofolate reductase

>  <assay_chembl_id>  (50) 
CHEMBL668440

>  <standard_relation>  (50) 
=

>  <assay_description>  (50) 
Inhibitory activity against recombinant human Dihydrofolate reductase

>  <published_relation>  (50) 
=

>  <standard_value>  (50) 
5400

>  <qudt_units>  (50) 
http://www.openphacts.org/units/Nanomolar

>  <target_tax_id>  (50) 
9606

>  <bao_label>  (50) 
single protein format

>  <published_units>  (50) 
uM

>  <pchembl_value>  (50) 
5.27

>  <published_type>  (50) 
IC50

>  <activity_comment>  (50) 
None

$$$$

     RDKit          

 27 30  0  0  0  0  0  0  0  0999 V2000
    0.0000    0.0000    0.0000 C   0  0  0  0  0  0  0  0  0  0  0  0
    0.0000    0.0000    0.0000 O   0  0  0  0  0  0  0  0  0  0  0  0
    0.0000    0.0000    0.0000 C   0  0  0  0  0  0  0  0  0  0  0  0
    0.0000    0.0000    0.0000 C   0  0  0  0  0  0  0  0  0  0  0  0
    0.0000    0.0000    0.0000 C   0  0  0  0  0  0  0  0  0  0  0  0
    0.0000    0.0000    0.0000 C   0  0  0  0  0  0  0  0  0  0  0  0
    0.0000    0.0000    0.0000 N   0  0  0  0  0  0  0  0  0  0  0  0
    0.0000    0.0000    0.0000 C   0  0  0  0  0  0  0  0  0  0  0  0
    0.0000    0.0000    0.0000 C   0  0  0  0  0  0  0  0  0  0  0  0
    0.0000    0.0000    0.0000 C   0  0  0  0  0  0  0  0  0  0  0  0
    0.0000    0.0000    0.0000 N   0  0  0  0  0  0  0  0  0  0  0  0
    0.0000    0.0000    0.0000 C   0  0  0  0  0  0  0  0  0  0  0  0
    0.0000    0.0000    0.0000 N   0  0  0  0  0  0  0  0  0  0  0  0
    0.0000    0.0000    0.0000 C   0  0  0  0  0  0  0  0  0  0  0  0
    0.0000    0.0000    0.0000 N   0  0  0  0  0  0  0  0  0  0  0  0
    0.0000    0.0000    0.0000 N   0  0  0  0  0  0  0  0  0  0  0  0
    0.0000    0.0000    0.0000 C   0  0  0  0  0  0  0  0  0  0  0  0
    0.0000    0.0000    0.0000 N   0  0  0  0  0  0  0  0  0  0  0  0
    0.0000    0.0000    0.0000 C   0  0  0  0  0  0  0  0  0  0  0  0
    0.0000    0.0000    0.0000 C   0  0  0  0  0  0  0  0  0  0  0  0
    0.0000    0.0000    0.0000 C   0  0  0  0  0  0  0  0  0  0  0  0
    0.0000    0.0000    0.0000 C   0  0  0  0  0  0  0  0  0  0  0  0
    0.0000    0.0000    0.0000 C   0  0  0  0  0  0  0  0  0  0  0  0
    0.0000    0.0000    0.0000 C   0  0  0  0  0  0  0  0  0  0  0  0
    0.0000    0.0000    0.0000 O   0  0  0  0  0  0  0  0  0  0  0  0
    0.0000    0.0000    0.0000 C   0  0  0  0  0  0  0  0  0  0  0  0
    0.0000    0.0000    0.0000 C   0  0  0  0  0  0  0  0  0  0  0  0
  1  2  1  0
  2  3  1  0
  3  4  2  0
  4  5  1  0
  5  6  1  0
  6  7  1  0
  7  8  1  0
  8  9  1  0
  9 10  1  0
 10 11  2  0
 11 12  1  0
 12 13  2  0
 13 14  1  0
 14 15  1  0
 14 16  2  0
 16 17  1  0
 17 18  1  0
 17 19  2  0
 19 20  1  0
 20 21  2  0
 21 22  1  0
  5 23  2  0
 23 24  1  0
 24 25  1  0
 25 26  1  0
 24 27  2  0
 27  3  1  0
 22  7  1  0
 21 10  1  0
 19 12  1  0
M  END
>  <pIC50>  (51) 
4.66

>  <ChEMBL_ID>  (51) 
CHEMBL357973

>  <document_journal>  (51) 
J. Med. Chem.

>  <bao_endpoint>  (51) 
BAO_0000190

>  <potential_duplicate>  (51) 
False

>  <uo_units>  (51) 
UO_0000065

>  <canonical_smiles>  (51) 
COc1cc(CN2CCc3nc4nc(N)nc(N)c4cc3C2)cc(OC)c1

>  <parent_molecule_chembl_id>  (51) 
CHEMBL357973

>  <assay_type>  (51) 
B

>  <src_id>  (51) 
1

>  <ligand_efficiency>  (51) 
{u'le': u'0.24', u'bei': u'12.71', u'sei': u'4.14', u'lle': u'2.82'}

>  <standard_flag>  (51) 
True

>  <molecule_chembl_id>  (51) 
CHEMBL357973

>  <target_organism>  (51) 
Homo sapiens

>  <standard_units>  (51) 
nM

>  <record_id>  (51) 
290420

>  <document_chembl_id>  (51) 
CHEMBL1135650

>  <bao_format>  (51) 
BAO_0000357

>  <data_validity_description>  (51) 
None

>  <activity_id>  (51) 
425759

>  <standard_type>  (51) 
IC50

>  <target_chembl_id>  (51) 
CHEMBL202

>  <data_validity_comment>  (51) 
None

>  <published_value>  (51) 
22

>  <document_year>  (51) 
2002

>  <target_pref_name>  (51) 
Dihydrofolate reductase

>  <assay_chembl_id>  (51) 
CHEMBL668440

>  <standard_relation>  (51) 
=

>  <assay_description>  (51) 
Inhibitory activity against recombinant human Dihydrofolate reductase

>  <published_relation>  (51) 
=

>  <standard_value>  (51) 
22000

>  <qudt_units>  (51) 
http://www.openphacts.org/units/Nanomolar

>  <target_tax_id>  (51) 
9606

>  <bao_label>  (51) 
single protein format

>  <published_units>  (51) 
uM

>  <pchembl_value>  (51) 
4.66

>  <published_type>  (51) 
IC50

>  <activity_comment>  (51) 
None

$$$$

     RDKit          

 25 28  0  0  0  0  0  0  0  0999 V2000
    0.0000    0.0000    0.0000 N   0  0  0  0  0  0  0  0  0  0  0  0
    0.0000    0.0000    0.0000 C   0  0  0  0  0  0  0  0  0  0  0  0
    0.0000    0.0000    0.0000 N   0  0  0  0  0  0  0  0  0  0  0  0
    0.0000    0.0000    0.0000 C   0  0  0  0  0  0  0  0  0  0  0  0
    0.0000    0.0000    0.0000 N   0  0  0  0  0  0  0  0  0  0  0  0
    0.0000    0.0000    0.0000 C   0  0  0  0  0  0  0  0  0  0  0  0
    0.0000    0.0000    0.0000 C   0  0  0  0  0  0  0  0  0  0  0  0
    0.0000    0.0000    0.0000 C   0  0  0  0  0  0  0  0  0  0  0  0
    0.0000    0.0000    0.0000 C   0  0  0  0  0  0  0  0  0  0  0  0
    0.0000    0.0000    0.0000 N   0  0  0  0  0  0  0  0  0  0  0  0
    0.0000    0.0000    0.0000 C   0  0  0  0  0  0  0  0  0  0  0  0
    0.0000    0.0000    0.0000 C   0  0  0  0  0  0  0  0  0  0  0  0
    0.0000    0.0000    0.0000 C   0  0  0  0  0  0  0  0  0  0  0  0
    0.0000    0.0000    0.0000 C   0  0  0  0  0  0  0  0  0  0  0  0
    0.0000    0.0000    0.0000 C   0  0  0  0  0  0  0  0  0  0  0  0
    0.0000    0.0000    0.0000 Cl  0  0  0  0  0  0  0  0  0  0  0  0
    0.0000    0.0000    0.0000 C   0  0  0  0  0  0  0  0  0  0  0  0
    0.0000    0.0000    0.0000 C   0  0  0  0  0  0  0  0  0  0  0  0
    0.0000    0.0000    0.0000 Cl  0  0  0  0  0  0  0  0  0  0  0  0
    0.0000    0.0000    0.0000 C   0  0  0  0  0  0  0  0  0  0  0  0
    0.0000    0.0000    0.0000 C   0  0  0  0  0  0  0  0  0  0  0  0
    0.0000    0.0000    0.0000 C   0  0  0  0  0  0  0  0  0  0  0  0
    0.0000    0.0000    0.0000 N   0  0  0  0  0  0  0  0  0  0  0  0
    0.0000    0.0000    0.0000 C   0  0  0  0  0  0  0  0  0  0  0  0
    0.0000    0.0000    0.0000 N   0  0  0  0  0  0  0  0  0  0  0  0
  1  2  1  0
  2  3  2  0
  3  4  1  0
  4  5  1  0
  4  6  2  0
  6  7  1  0
  7  8  2  0
  8  9  1  0
  9 10  1  0
 10 11  1  0
 11 12  1  0
 12 13  2  0
 13 14  1  0
 14 15  2  0
 15 16  1  0
 15 17  1  0
 17 18  2  0
 18 19  1  0
 10 20  1  0
 20 21  1  0
 21 22  1  0
 22 23  2  0
 23 24  1  0
 24 25  2  0
 25  2  1  0
 24  6  1  0
 22  8  1  0
 18 12  1  0
M  END
>  <pIC50>  (52) 
5.89

>  <ChEMBL_ID>  (52) 
CHEMBL149027

>  <document_journal>  (52) 
J. Med. Chem.

>  <bao_endpoint>  (52) 
BAO_0000190

>  <potential_duplicate>  (52) 
False

>  <uo_units>  (52) 
UO_0000065

>  <canonical_smiles>  (52) 
Nc1nc(N)c2cc3CN(Cc4ccc(Cl)cc4Cl)CCc3nc2n1

>  <parent_molecule_chembl_id>  (52) 
CHEMBL149027

>  <assay_type>  (52) 
B

>  <src_id>  (52) 
1

>  <ligand_efficiency>  (52) 
{u'le': u'0.32', u'bei': u'15.69', u'sei': u'6.27', u'lle': u'2.69'}

>  <standard_flag>  (52) 
True

>  <molecule_chembl_id>  (52) 
CHEMBL149027

>  <target_organism>  (52) 
Homo sapiens

>  <standard_units>  (52) 
nM

>  <record_id>  (52) 
290419

>  <document_chembl_id>  (52) 
CHEMBL1135650

>  <bao_format>  (52) 
BAO_0000357

>  <data_validity_description>  (52) 
None

>  <activity_id>  (52) 
427215

>  <standard_type>  (52) 
IC50

>  <target_chembl_id>  (52) 
CHEMBL202

>  <data_validity_comment>  (52) 
None

>  <published_value>  (52) 
1.3

>  <document_year>  (52) 
2002

>  <target_pref_name>  (52) 
Dihydrofolate reductase

>  <assay_chembl_id>  (52) 
CHEMBL668440

>  <standard_relation>  (52) 
=

>  <assay_description>  (52) 
Inhibitory activity against recombinant human Dihydrofolate reductase

>  <published_relation>  (52) 
=

>  <standard_value>  (52) 
1300

>  <qudt_units>  (52) 
http://www.openphacts.org/units/Nanomolar

>  <target_tax_id>  (52) 
9606

>  <bao_label>  (52) 
single protein format

>  <published_units>  (52) 
uM

>  <pchembl_value>  (52) 
5.89

>  <published_type>  (52) 
IC50

>  <activity_comment>  (52) 
None

$$$$

     RDKit          

 33 35  0  0  0  0  0  0  0  0999 V2000
    0.0000    0.0000    0.0000 N   0  0  0  0  0  0  0  0  0  0  0  0
    0.0000    0.0000    0.0000 C   0  0  0  0  0  0  0  0  0  0  0  0
    0.0000    0.0000    0.0000 C   0  0  0  0  0  0  0  0  0  0  0  0
    0.0000    0.0000    0.0000 C   0  0  0  0  0  0  0  0  0  0  0  0
    0.0000    0.0000    0.0000 N   0  0  0  0  0  0  0  0  0  0  0  0
    0.0000    0.0000    0.0000 C   0  0  0  0  0  0  0  0  0  0  0  0
    0.0000    0.0000    0.0000 N   0  0  0  0  0  0  0  0  0  0  0  0
    0.0000    0.0000    0.0000 N   0  0  0  0  0  0  0  0  0  0  0  0
    0.0000    0.0000    0.0000 C   0  0  0  0  0  0  0  0  0  0  0  0
    0.0000    0.0000    0.0000 C   0  0  0  0  0  0  0  0  0  0  0  0
    0.0000    0.0000    0.0000 C   0  0  0  0  0  0  0  0  0  0  0  0
    0.0000    0.0000    0.0000 C   0  0  0  0  0  0  0  0  0  0  0  0
    0.0000    0.0000    0.0000 C   0  0  0  0  0  0  0  0  0  0  0  0
    0.0000    0.0000    0.0000 C   0  0  0  0  0  0  0  0  0  0  0  0
    0.0000    0.0000    0.0000 C   0  0  0  0  0  0  0  0  0  0  0  0
    0.0000    0.0000    0.0000 C   0  0  0  0  0  0  0  0  0  0  0  0
    0.0000    0.0000    0.0000 C   0  0  0  0  0  0  0  0  0  0  0  0
    0.0000    0.0000    0.0000 C   0  0  0  0  0  0  0  0  0  0  0  0
    0.0000    0.0000    0.0000 C   0  0  0  0  0  0  0  0  0  0  0  0
    0.0000    0.0000    0.0000 C   0  0  0  0  0  0  0  0  0  0  0  0
    0.0000    0.0000    0.0000 C   0  0  0  0  0  0  0  0  0  0  0  0
    0.0000    0.0000    0.0000 C   0  0  0  0  0  0  0  0  0  0  0  0
    0.0000    0.0000    0.0000 O   0  0  0  0  0  0  0  0  0  0  0  0
    0.0000    0.0000    0.0000 N   0  0  0  0  0  0  0  0  0  0  0  0
    0.0000    0.0000    0.0000 C   0  0  0  0  0  0  0  0  0  0  0  0
    0.0000    0.0000    0.0000 C   0  0  0  0  0  0  0  0  0  0  0  0
    0.0000    0.0000    0.0000 C   0  0  0  0  0  0  0  0  0  0  0  0
    0.0000    0.0000    0.0000 C   0  0  0  0  0  0  0  0  0  0  0  0
    0.0000    0.0000    0.0000 O   0  0  0  0  0  0  0  0  0  0  0  0
    0.0000    0.0000    0.0000 O   0  0  0  0  0  0  0  0  0  0  0  0
    0.0000    0.0000    0.0000 C   0  0  0  0  0  0  0  0  0  0  0  0
    0.0000    0.0000    0.0000 O   0  0  0  0  0  0  0  0  0  0  0  0
    0.0000    0.0000    0.0000 O   0  0  0  0  0  0  0  0  0  0  0  0
  1  2  2  0
  2  3  1  0
  3  4  2  0
  4  5  1  0
  1  6  1  0
  6  7  1  0
  6  8  2  0
  8  4  1  0
  9  2  1  0
 10  9  1  0
 11  3  1  0
 12 11  2  0
 11 13  1  0
  5 12  1  0
 12 14  1  0
 13 15  1  0
 15 16  1  0
 16 17  2  0
 18 16  1  0
 17 19  1  0
 20 18  2  0
 19 21  2  0
 21 20  1  0
 21 22  1  0
 22 23  2  0
 22 24  1  0
 24 25  1  0
 25 26  1  0
 25 27  1  0
 26 28  1  0
 27 29  2  0
 27 30  1  0
 28 31  1  0
 31 32  2  0
 31 33  1  0
M  END
>  <pIC50>  (53) 
4.66

>  <ChEMBL_ID>  (53) 
CHEMBL154935

>  <document_journal>  (53) 
J. Med. Chem.

>  <bao_endpoint>  (53) 
BAO_0000190

>  <potential_duplicate>  (53) 
False

>  <uo_units>  (53) 
UO_0000065

>  <canonical_smiles>  (53) 
CCc1[nH]c(N)nc2nc(C)c(CCc3ccc(cc3)C(=O)N[C@@H](CCC(=O)O)C(=O)O)c12

>  <parent_molecule_chembl_id>  (53) 
CHEMBL154935

>  <assay_type>  (53) 
B

>  <src_id>  (53) 
1

>  <ligand_efficiency>  (53) 
{u'le': u'0.19', u'bei': u'10.27', u'sei': u'2.72', u'lle': u'2.36'}

>  <standard_flag>  (53) 
True

>  <molecule_chembl_id>  (53) 
CHEMBL154935

>  <target_organism>  (53) 
Homo sapiens

>  <standard_units>  (53) 
nM

>  <record_id>  (53) 
304709

>  <document_chembl_id>  (53) 
CHEMBL1145967

>  <bao_format>  (53) 
BAO_0000357

>  <data_validity_description>  (53) 
None

>  <activity_id>  (53) 
446821

>  <standard_type>  (53) 
IC50

>  <target_chembl_id>  (53) 
CHEMBL202

>  <data_validity_comment>  (53) 
None

>  <published_value>  (53) 
0.000022

>  <document_year>  (53) 
2003

>  <target_pref_name>  (53) 
Dihydrofolate reductase

>  <assay_chembl_id>  (53) 
CHEMBL669988

>  <standard_relation>  (53) 
=

>  <assay_description>  (53) 
Compound was evaluated as inhibitor of human Dihydrofolate reductase

>  <published_relation>  (53) 
=

>  <standard_value>  (53) 
22000

>  <qudt_units>  (53) 
http://www.openphacts.org/units/Nanomolar

>  <target_tax_id>  (53) 
9606

>  <bao_label>  (53) 
single protein format

>  <published_units>  (53) 
M

>  <pchembl_value>  (53) 
4.66

>  <published_type>  (53) 
IC50

>  <activity_comment>  (53) 
None

$$$$

     RDKit          

 31 33  0  0  0  0  0  0  0  0999 V2000
    0.0000    0.0000    0.0000 C   0  0  0  0  0  0  0  0  0  0  0  0
    0.0000    0.0000    0.0000 C   0  0  0  0  0  0  0  0  0  0  0  0
    0.0000    0.0000    0.0000 N   0  0  0  0  0  0  0  0  0  0  0  0
    0.0000    0.0000    0.0000 C   0  0  0  0  0  0  0  0  0  0  0  0
    0.0000    0.0000    0.0000 N   0  0  0  0  0  0  0  0  0  0  0  0
    0.0000    0.0000    0.0000 N   0  0  0  0  0  0  0  0  0  0  0  0
    0.0000    0.0000    0.0000 C   0  0  0  0  0  0  0  0  0  0  0  0
    0.0000    0.0000    0.0000 N   0  0  0  0  0  0  0  0  0  0  0  0
    0.0000    0.0000    0.0000 C   0  0  0  0  0  0  0  0  0  0  0  0
    0.0000    0.0000    0.0000 C   0  0  0  0  0  0  0  0  0  0  0  0
    0.0000    0.0000    0.0000 C   0  0  0  0  0  0  0  0  0  0  0  0
    0.0000    0.0000    0.0000 C   0  0  0  0  0  0  0  0  0  0  0  0
    0.0000    0.0000    0.0000 C   0  0  0  0  0  0  0  0  0  0  0  0
    0.0000    0.0000    0.0000 C   0  0  0  0  0  0  0  0  0  0  0  0
    0.0000    0.0000    0.0000 C   0  0  0  0  0  0  0  0  0  0  0  0
    0.0000    0.0000    0.0000 C   0  0  0  0  0  0  0  0  0  0  0  0
    0.0000    0.0000    0.0000 C   0  0  0  0  0  0  0  0  0  0  0  0
    0.0000    0.0000    0.0000 C   0  0  0  0  0  0  0  0  0  0  0  0
    0.0000    0.0000    0.0000 C   0  0  0  0  0  0  0  0  0  0  0  0
    0.0000    0.0000    0.0000 O   0  0  0  0  0  0  0  0  0  0  0  0
    0.0000    0.0000    0.0000 N   0  0  0  0  0  0  0  0  0  0  0  0
    0.0000    0.0000    0.0000 C   0  0  0  0  0  0  0  0  0  0  0  0
    0.0000    0.0000    0.0000 C   0  0  0  0  0  0  0  0  0  0  0  0
    0.0000    0.0000    0.0000 C   0  0  0  0  0  0  0  0  0  0  0  0
    0.0000    0.0000    0.0000 C   0  0  0  0  0  0  0  0  0  0  0  0
    0.0000    0.0000    0.0000 O   0  0  0  0  0  0  0  0  0  0  0  0
    0.0000    0.0000    0.0000 O   0  0  0  0  0  0  0  0  0  0  0  0
    0.0000    0.0000    0.0000 C   0  0  0  0  0  0  0  0  0  0  0  0
    0.0000    0.0000    0.0000 O   0  0  0  0  0  0  0  0  0  0  0  0
    0.0000    0.0000    0.0000 O   0  0  0  0  0  0  0  0  0  0  0  0
    0.0000    0.0000    0.0000 C   0  0  0  0  0  0  0  0  0  0  0  0
  1  2  1  0
  2  3  2  0
  3  4  1  0
  4  5  1  0
  4  6  2  0
  6  7  1  0
  7  8  1  0
  8  9  1  0
  9 10  2  0
 10 11  1  0
 11 12  1  0
 12 13  1  0
 13 14  2  0
 14 15  1  0
 15 16  2  0
 16 17  1  0
 17 18  2  0
 16 19  1  0
 19 20  2  0
 19 21  1  0
 21 22  1  0
 22 23  1  0
 23 24  1  0
 24 25  1  0
 25 26  2  0
 25 27  1  0
 22 28  1  0
 28 29  2  0
 28 30  1  0
 10 31  1  0
 31  2  1  0
 31  7  2  0
 18 13  1  0
M  END
>  <pIC50>  (54) 
6.01

>  <ChEMBL_ID>  (54) 
CHEMBL439973

>  <document_journal>  (54) 
J. Med. Chem.

>  <bao_endpoint>  (54) 
BAO_0000190

>  <potential_duplicate>  (54) 
False

>  <uo_units>  (54) 
UO_0000065

>  <canonical_smiles>  (54) 
Cc1nc(N)nc2[nH]cc(CCc3ccc(cc3)C(=O)N[C@@H](CCC(=O)O)C(=O)O)c12

>  <parent_molecule_chembl_id>  (54) 
CHEMBL439973

>  <assay_type>  (54) 
B

>  <src_id>  (54) 
1

>  <ligand_efficiency>  (54) 
{u'le': u'0.26', u'bei': u'13.92', u'sei': u'3.46', u'lle': u'4.01'}

>  <standard_flag>  (54) 
True

>  <molecule_chembl_id>  (54) 
CHEMBL439973

>  <target_organism>  (54) 
Homo sapiens

>  <standard_units>  (54) 
nM

>  <record_id>  (54) 
304702

>  <document_chembl_id>  (54) 
CHEMBL1145967

>  <bao_format>  (54) 
BAO_0000357

>  <data_validity_description>  (54) 
None

>  <activity_id>  (54) 
466283

>  <standard_type>  (54) 
IC50

>  <target_chembl_id>  (54) 
CHEMBL202

>  <data_validity_comment>  (54) 
None

>  <published_value>  (54) 
0.0000012

>  <document_year>  (54) 
2003

>  <target_pref_name>  (54) 
Dihydrofolate reductase

>  <assay_chembl_id>  (54) 
CHEMBL669988

>  <standard_relation>  (54) 
=

>  <assay_description>  (54) 
Compound was evaluated as inhibitor of human Dihydrofolate reductase

>  <published_relation>  (54) 
=

>  <standard_value>  (54) 
1200

>  <qudt_units>  (54) 
http://www.openphacts.org/units/Nanomolar

>  <target_tax_id>  (54) 
9606

>  <bao_label>  (54) 
single protein format

>  <published_units>  (54) 
M

>  <pchembl_value>  (54) 
5.92

>  <published_type>  (54) 
IC50

>  <activity_comment>  (54) 
None

$$$$

     RDKit          

 32 34  0  0  0  0  0  0  0  0999 V2000
    0.0000    0.0000    0.0000 N   0  0  0  0  0  0  0  0  0  0  0  0
    0.0000    0.0000    0.0000 C   0  0  0  0  0  0  0  0  0  0  0  0
    0.0000    0.0000    0.0000 C   0  0  0  0  0  0  0  0  0  0  0  0
    0.0000    0.0000    0.0000 C   0  0  0  0  0  0  0  0  0  0  0  0
    0.0000    0.0000    0.0000 N   0  0  0  0  0  0  0  0  0  0  0  0
    0.0000    0.0000    0.0000 C   0  0  0  0  0  0  0  0  0  0  0  0
    0.0000    0.0000    0.0000 N   0  0  0  0  0  0  0  0  0  0  0  0
    0.0000    0.0000    0.0000 N   0  0  0  0  0  0  0  0  0  0  0  0
    0.0000    0.0000    0.0000 C   0  0  0  0  0  0  0  0  0  0  0  0
    0.0000    0.0000    0.0000 C   0  0  0  0  0  0  0  0  0  0  0  0
    0.0000    0.0000    0.0000 C   0  0  0  0  0  0  0  0  0  0  0  0
    0.0000    0.0000    0.0000 C   0  0  0  0  0  0  0  0  0  0  0  0
    0.0000    0.0000    0.0000 C   0  0  0  0  0  0  0  0  0  0  0  0
    0.0000    0.0000    0.0000 C   0  0  0  0  0  0  0  0  0  0  0  0
    0.0000    0.0000    0.0000 C   0  0  0  0  0  0  0  0  0  0  0  0
    0.0000    0.0000    0.0000 C   0  0  0  0  0  0  0  0  0  0  0  0
    0.0000    0.0000    0.0000 C   0  0  0  0  0  0  0  0  0  0  0  0
    0.0000    0.0000    0.0000 C   0  0  0  0  0  0  0  0  0  0  0  0
    0.0000    0.0000    0.0000 C   0  0  0  0  0  0  0  0  0  0  0  0
    0.0000    0.0000    0.0000 C   0  0  0  0  0  0  0  0  0  0  0  0
    0.0000    0.0000    0.0000 C   0  0  0  0  0  0  0  0  0  0  0  0
    0.0000    0.0000    0.0000 O   0  0  0  0  0  0  0  0  0  0  0  0
    0.0000    0.0000    0.0000 N   0  0  0  0  0  0  0  0  0  0  0  0
    0.0000    0.0000    0.0000 C   0  0  0  0  0  0  0  0  0  0  0  0
    0.0000    0.0000    0.0000 C   0  0  0  0  0  0  0  0  0  0  0  0
    0.0000    0.0000    0.0000 C   0  0  0  0  0  0  0  0  0  0  0  0
    0.0000    0.0000    0.0000 C   0  0  0  0  0  0  0  0  0  0  0  0
    0.0000    0.0000    0.0000 O   0  0  0  0  0  0  0  0  0  0  0  0
    0.0000    0.0000    0.0000 O   0  0  0  0  0  0  0  0  0  0  0  0
    0.0000    0.0000    0.0000 C   0  0  0  0  0  0  0  0  0  0  0  0
    0.0000    0.0000    0.0000 O   0  0  0  0  0  0  0  0  0  0  0  0
    0.0000    0.0000    0.0000 O   0  0  0  0  0  0  0  0  0  0  0  0
  1  2  2  0
  2  3  1  0
  3  4  2  0
  4  5  1  0
  1  6  1  0
  6  7  1  0
  6  8  2  0
  8  4  1  0
  9  2  1  0
 10  9  1  0
 11  3  1  0
 12 11  2  0
 11 13  1  0
  5 12  1  0
 13 14  1  0
 14 15  1  0
 15 16  2  0
 17 15  1  0
 16 18  1  0
 19 17  2  0
 18 20  2  0
 20 19  1  0
 20 21  1  0
 21 22  2  0
 21 23  1  0
 23 24  1  0
 24 25  1  0
 24 26  1  0
 25 27  1  0
 26 28  2  0
 26 29  1  0
 27 30  1  0
 30 31  2  0
 30 32  1  0
M  END
>  <pIC50>  (55) 
6.04

>  <ChEMBL_ID>  (55) 
CHEMBL157434

>  <document_journal>  (55) 
J. Med. Chem.

>  <bao_endpoint>  (55) 
BAO_0000190

>  <potential_duplicate>  (55) 
False

>  <uo_units>  (55) 
UO_0000065

>  <canonical_smiles>  (55) 
CCc1[nH]c(N)nc2ncc(CCc3ccc(cc3)C(=O)N[C@@H](CCC(=O)O)C(=O)O)c12

>  <parent_molecule_chembl_id>  (55) 
CHEMBL157434

>  <assay_type>  (55) 
B

>  <src_id>  (55) 
1

>  <ligand_efficiency>  (55) 
{u'le': u'0.26', u'bei': u'13.74', u'sei': u'3.52', u'lle': u'4.03'}

>  <standard_flag>  (55) 
True

>  <molecule_chembl_id>  (55) 
CHEMBL157434

>  <target_organism>  (55) 
Homo sapiens

>  <standard_units>  (55) 
nM

>  <record_id>  (55) 
304710

>  <document_chembl_id>  (55) 
CHEMBL1145967

>  <bao_format>  (55) 
BAO_0000357

>  <data_validity_description>  (55) 
None

>  <activity_id>  (55) 
473209

>  <standard_type>  (55) 
IC50

>  <target_chembl_id>  (55) 
CHEMBL202

>  <data_validity_comment>  (55) 
None

>  <published_value>  (55) 
9.2E-7

>  <document_year>  (55) 
2003

>  <target_pref_name>  (55) 
Dihydrofolate reductase

>  <assay_chembl_id>  (55) 
CHEMBL669988

>  <standard_relation>  (55) 
=

>  <assay_description>  (55) 
Compound was evaluated as inhibitor of human Dihydrofolate reductase

>  <published_relation>  (55) 
=

>  <standard_value>  (55) 
920

>  <qudt_units>  (55) 
http://www.openphacts.org/units/Nanomolar

>  <target_tax_id>  (55) 
9606

>  <bao_label>  (55) 
single protein format

>  <published_units>  (55) 
M

>  <pchembl_value>  (55) 
6.04

>  <published_type>  (55) 
IC50

>  <activity_comment>  (55) 
None

$$$$

     RDKit          

 32 34  0  0  0  0  0  0  0  0999 V2000
    0.0000    0.0000    0.0000 N   0  0  0  0  0  0  0  0  0  0  0  0
    0.0000    0.0000    0.0000 C   0  0  0  0  0  0  0  0  0  0  0  0
    0.0000    0.0000    0.0000 N   0  0  0  0  0  0  0  0  0  0  0  0
    0.0000    0.0000    0.0000 C   0  0  0  0  0  0  0  0  0  0  0  0
    0.0000    0.0000    0.0000 O   0  0  0  0  0  0  0  0  0  0  0  0
    0.0000    0.0000    0.0000 C   0  0  0  0  0  0  0  0  0  0  0  0
    0.0000    0.0000    0.0000 C   0  0  0  0  0  0  0  0  0  0  0  0
    0.0000    0.0000    0.0000 C   0  0  0  0  0  0  0  0  0  0  0  0
    0.0000    0.0000    0.0000 C   0  0  0  0  0  0  0  0  0  0  0  0
    0.0000    0.0000    0.0000 C   0  0  0  0  0  0  0  0  0  0  0  0
    0.0000    0.0000    0.0000 C   0  0  0  0  0  0  0  0  0  0  0  0
    0.0000    0.0000    0.0000 C   0  0  0  0  0  0  0  0  0  0  0  0
    0.0000    0.0000    0.0000 S   0  0  0  0  0  0  0  0  0  0  0  0
    0.0000    0.0000    0.0000 C   0  0  0  0  0  0  0  0  0  0  0  0
    0.0000    0.0000    0.0000 C   0  0  0  0  0  0  0  0  0  0  0  0
    0.0000    0.0000    0.0000 C   0  0  0  0  0  0  0  0  0  0  0  0
    0.0000    0.0000    0.0000 C   0  0  0  0  0  0  0  0  0  0  0  0
    0.0000    0.0000    0.0000 C   0  0  0  0  0  0  0  0  0  0  0  0
    0.0000    0.0000    0.0000 C   0  0  0  0  0  0  0  0  0  0  0  0
    0.0000    0.0000    0.0000 C   0  0  0  0  0  0  0  0  0  0  0  0
    0.0000    0.0000    0.0000 O   0  0  0  0  0  0  0  0  0  0  0  0
    0.0000    0.0000    0.0000 N   0  0  0  0  0  0  0  0  0  0  0  0
    0.0000    0.0000    0.0000 C   0  0  0  0  0  0  0  0  0  0  0  0
    0.0000    0.0000    0.0000 C   0  0  0  0  0  0  0  0  0  0  0  0
    0.0000    0.0000    0.0000 C   0  0  0  0  0  0  0  0  0  0  0  0
    0.0000    0.0000    0.0000 C   0  0  0  0  0  0  0  0  0  0  0  0
    0.0000    0.0000    0.0000 O   0  0  0  0  0  0  0  0  0  0  0  0
    0.0000    0.0000    0.0000 O   0  0  0  0  0  0  0  0  0  0  0  0
    0.0000    0.0000    0.0000 C   0  0  0  0  0  0  0  0  0  0  0  0
    0.0000    0.0000    0.0000 O   0  0  0  0  0  0  0  0  0  0  0  0
    0.0000    0.0000    0.0000 O   0  0  0  0  0  0  0  0  0  0  0  0
    0.0000    0.0000    0.0000 N   0  0  0  0  0  0  0  0  0  0  0  0
  1  2  2  0
  2  3  1  0
  3  4  1  0
  4  5  2  0
  6  1  1  0
  7  6  2  0
  6  8  1  0
  9  7  1  0
  4  8  1  0
  8 10  2  0
 11  9  2  0
 10 11  1  0
 11 12  1  0
 12 13  1  0
 13 14  1  0
 14 15  2  0
 16 14  1  0
 15 17  1  0
 18 16  2  0
 17 19  2  0
 19 18  1  0
 19 20  1  0
 20 21  2  0
 20 22  1  0
 22 23  1  0
 23 24  1  0
 23 25  1  0
 24 26  1  0
 25 27  2  0
 25 28  1  0
 26 29  1  0
 29 30  2  0
 29 31  1  0
 32  2  1  0
M  END
>  <pIC50>  (56) 
6.48

>  <ChEMBL_ID>  (56) 
CHEMBL138870

>  <document_journal>  (56) 
J. Med. Chem.

>  <bao_endpoint>  (56) 
BAO_0000190

>  <potential_duplicate>  (56) 
True

>  <uo_units>  (56) 
UO_0000065

>  <canonical_smiles>  (56) 
NC1=NC(=O)c2cc(CSc3ccc(cc3)C(=O)NC(CCC(=O)O)C(=O)O)ccc2N1

>  <parent_molecule_chembl_id>  (56) 
CHEMBL138870

>  <assay_type>  (56) 
B

>  <src_id>  (56) 
1

>  <ligand_efficiency>  (56) 
{u'le': u'0.28', u'bei': u'14.2', u'sei': u'3.3', u'lle': u'4.86'}

>  <standard_flag>  (56) 
True

>  <molecule_chembl_id>  (56) 
CHEMBL138870

>  <target_organism>  (56) 
Homo sapiens

>  <standard_units>  (56) 
nM

>  <record_id>  (56) 
63648

>  <document_chembl_id>  (56) 
CHEMBL1124621

>  <bao_format>  (56) 
BAO_0000357

>  <data_validity_description>  (56) 
None

>  <activity_id>  (56) 
476827

>  <standard_type>  (56) 
IC50

>  <target_chembl_id>  (56) 
CHEMBL202

>  <data_validity_comment>  (56) 
None

>  <published_value>  (56) 
0.33

>  <document_year>  (56) 
1989

>  <target_pref_name>  (56) 
Dihydrofolate reductase

>  <assay_chembl_id>  (56) 
CHEMBL669445

>  <standard_relation>  (56) 
=

>  <assay_description>  (56) 
Inhibition of human dihydrofolate reductase

>  <published_relation>  (56) 
=

>  <standard_value>  (56) 
330

>  <qudt_units>  (56) 
http://www.openphacts.org/units/Nanomolar

>  <target_tax_id>  (56) 
9606

>  <bao_label>  (56) 
single protein format

>  <published_units>  (56) 
uM

>  <pchembl_value>  (56) 
6.48

>  <published_type>  (56) 
I50

>  <activity_comment>  (56) 
None

$$$$

     RDKit          

 31 33  0  0  0  0  0  0  0  0999 V2000
    0.0000    0.0000    0.0000 O   0  0  0  0  0  0  0  0  0  0  0  0
    0.0000    0.0000    0.0000 C   0  0  0  0  0  0  0  0  0  0  0  0
    0.0000    0.0000    0.0000 N   0  0  0  0  0  0  0  0  0  0  0  0
    0.0000    0.0000    0.0000 C   0  0  0  0  0  0  0  0  0  0  0  0
    0.0000    0.0000    0.0000 C   0  0  0  0  0  0  0  0  0  0  0  0
    0.0000    0.0000    0.0000 C   0  0  0  0  0  0  0  0  0  0  0  0
    0.0000    0.0000    0.0000 C   0  0  0  0  0  0  0  0  0  0  0  0
    0.0000    0.0000    0.0000 C   0  0  0  0  0  0  0  0  0  0  0  0
    0.0000    0.0000    0.0000 N   0  0  0  0  0  0  0  0  0  0  0  0
    0.0000    0.0000    0.0000 C   0  0  0  0  0  0  0  0  0  0  0  0
    0.0000    0.0000    0.0000 C   0  0  0  0  0  0  0  0  0  0  0  0
    0.0000    0.0000    0.0000 C   0  0  0  0  0  0  0  0  0  0  0  0
    0.0000    0.0000    0.0000 S   0  0  0  0  0  0  0  0  0  0  0  0
    0.0000    0.0000    0.0000 C   0  0  0  0  0  0  0  0  0  0  0  0
    0.0000    0.0000    0.0000 C   0  0  0  0  0  0  0  0  0  0  0  0
    0.0000    0.0000    0.0000 C   0  0  0  0  0  0  0  0  0  0  0  0
    0.0000    0.0000    0.0000 C   0  0  0  0  0  0  0  0  0  0  0  0
    0.0000    0.0000    0.0000 C   0  0  0  0  0  0  0  0  0  0  0  0
    0.0000    0.0000    0.0000 C   0  0  0  0  0  0  0  0  0  0  0  0
    0.0000    0.0000    0.0000 C   0  0  0  0  0  0  0  0  0  0  0  0
    0.0000    0.0000    0.0000 N   0  0  0  0  0  0  0  0  0  0  0  0
    0.0000    0.0000    0.0000 O   0  0  0  0  0  0  0  0  0  0  0  0
    0.0000    0.0000    0.0000 C   0  0  0  0  0  0  0  0  0  0  0  0
    0.0000    0.0000    0.0000 C   0  0  0  0  0  0  0  0  0  0  0  0
    0.0000    0.0000    0.0000 C   0  0  0  0  0  0  0  0  0  0  0  0
    0.0000    0.0000    0.0000 C   0  0  0  0  0  0  0  0  0  0  0  0
    0.0000    0.0000    0.0000 O   0  0  0  0  0  0  0  0  0  0  0  0
    0.0000    0.0000    0.0000 O   0  0  0  0  0  0  0  0  0  0  0  0
    0.0000    0.0000    0.0000 C   0  0  0  0  0  0  0  0  0  0  0  0
    0.0000    0.0000    0.0000 O   0  0  0  0  0  0  0  0  0  0  0  0
    0.0000    0.0000    0.0000 O   0  0  0  0  0  0  0  0  0  0  0  0
  1  2  2  0
  2  3  1  0
  2  4  1  0
  4  5  2  0
  4  6  1  0
  5  7  1  0
  8  6  2  0
  6  9  1  0
 10  7  1  0
  7 11  2  0
 11  8  1  0
  9 12  2  0
 13 10  1  0
 12  3  1  0
 14 13  1  0
 15 14  2  0
 14 16  1  0
 17 15  1  0
 16 18  2  0
 19 17  2  0
 18 19  1  0
 20 19  1  0
 21 20  1  0
 20 22  2  0
 23 21  1  0
 24 23  1  0
 23 25  1  0
 26 24  1  0
 25 27  2  0
 25 28  1  0
 29 26  1  0
 30 29  1  0
 29 31  2  0
M  END
>  <pIC50>  (57) 
6.19

>  <ChEMBL_ID>  (57) 
CHEMBL171790

>  <document_journal>  (57) 
J. Med. Chem.

>  <bao_endpoint>  (57) 
BAO_0000190

>  <potential_duplicate>  (57) 
True

>  <uo_units>  (57) 
UO_0000065

>  <canonical_smiles>  (57) 
OC(=O)CCC(NC(=O)c1ccc(SCc2ccc3ncnc(O)c3c2)cc1)C(=O)O

>  <parent_molecule_chembl_id>  (57) 
CHEMBL171790

>  <assay_type>  (57) 
B

>  <src_id>  (57) 
1

>  <ligand_efficiency>  (57) 
{u'le': u'0.27', u'bei': u'14.02', u'sei': u'3.54', u'lle': u'3.5'}

>  <standard_flag>  (57) 
True

>  <molecule_chembl_id>  (57) 
CHEMBL171790

>  <target_organism>  (57) 
Homo sapiens

>  <standard_units>  (57) 
nM

>  <record_id>  (57) 
63657

>  <document_chembl_id>  (57) 
CHEMBL1124621

>  <bao_format>  (57) 
BAO_0000357

>  <data_validity_description>  (57) 
None

>  <activity_id>  (57) 
476830

>  <standard_type>  (57) 
IC50

>  <target_chembl_id>  (57) 
CHEMBL202

>  <data_validity_comment>  (57) 
None

>  <published_value>  (57) 
0.65

>  <document_year>  (57) 
1989

>  <target_pref_name>  (57) 
Dihydrofolate reductase

>  <assay_chembl_id>  (57) 
CHEMBL669445

>  <standard_relation>  (57) 
=

>  <assay_description>  (57) 
Inhibition of human dihydrofolate reductase

>  <published_relation>  (57) 
=

>  <standard_value>  (57) 
650

>  <qudt_units>  (57) 
http://www.openphacts.org/units/Nanomolar

>  <target_tax_id>  (57) 
9606

>  <bao_label>  (57) 
single protein format

>  <published_units>  (57) 
uM

>  <pchembl_value>  (57) 
6.19

>  <published_type>  (57) 
I50

>  <activity_comment>  (57) 
None

$$$$

     RDKit          

 30 32  0  0  0  0  0  0  0  0999 V2000
    0.0000    0.0000    0.0000 O   0  0  0  0  0  0  0  0  0  0  0  0
    0.0000    0.0000    0.0000 C   0  0  0  0  0  0  0  0  0  0  0  0
    0.0000    0.0000    0.0000 N   0  0  0  0  0  0  0  0  0  0  0  0
    0.0000    0.0000    0.0000 C   0  0  0  0  0  0  0  0  0  0  0  0
    0.0000    0.0000    0.0000 C   0  0  0  0  0  0  0  0  0  0  0  0
    0.0000    0.0000    0.0000 C   0  0  0  0  0  0  0  0  0  0  0  0
    0.0000    0.0000    0.0000 C   0  0  0  0  0  0  0  0  0  0  0  0
    0.0000    0.0000    0.0000 C   0  0  0  0  0  0  0  0  0  0  0  0
    0.0000    0.0000    0.0000 N   0  0  0  0  0  0  0  0  0  0  0  0
    0.0000    0.0000    0.0000 C   0  0  0  0  0  0  0  0  0  0  0  0
    0.0000    0.0000    0.0000 C   0  0  0  0  0  0  0  0  0  0  0  0
    0.0000    0.0000    0.0000 C   0  0  0  0  0  0  0  0  0  0  0  0
    0.0000    0.0000    0.0000 S   0  0  0  0  0  0  0  0  0  0  0  0
    0.0000    0.0000    0.0000 C   0  0  0  0  0  0  0  0  0  0  0  0
    0.0000    0.0000    0.0000 C   0  0  0  0  0  0  0  0  0  0  0  0
    0.0000    0.0000    0.0000 C   0  0  0  0  0  0  0  0  0  0  0  0
    0.0000    0.0000    0.0000 C   0  0  0  0  0  0  0  0  0  0  0  0
    0.0000    0.0000    0.0000 C   0  0  0  0  0  0  0  0  0  0  0  0
    0.0000    0.0000    0.0000 C   0  0  0  0  0  0  0  0  0  0  0  0
    0.0000    0.0000    0.0000 C   0  0  0  0  0  0  0  0  0  0  0  0
    0.0000    0.0000    0.0000 N   0  0  0  0  0  0  0  0  0  0  0  0
    0.0000    0.0000    0.0000 O   0  0  0  0  0  0  0  0  0  0  0  0
    0.0000    0.0000    0.0000 C   0  0  0  0  0  0  0  0  0  0  0  0
    0.0000    0.0000    0.0000 C   0  0  0  0  0  0  0  0  0  0  0  0
    0.0000    0.0000    0.0000 C   0  0  0  0  0  0  0  0  0  0  0  0
    0.0000    0.0000    0.0000 C   0  0  0  0  0  0  0  0  0  0  0  0
    0.0000    0.0000    0.0000 O   0  0  0  0  0  0  0  0  0  0  0  0
    0.0000    0.0000    0.0000 O   0  0  0  0  0  0  0  0  0  0  0  0
    0.0000    0.0000    0.0000 C   0  0  0  0  0  0  0  0  0  0  0  0
    0.0000    0.0000    0.0000 N   0  0  0  0  0  0  0  0  0  0  0  0
  1  2  2  0
  2  3  1  0
  2  4  1  0
  4  5  2  0
  4  6  1  0
  5  7  1  0
  8  6  2  0
  6  9  1  0
 10  7  1  0
  7 11  2  0
 11  8  1  0
  9 12  2  0
 13 10  1  0
 12  3  1  0
 14 13  1  0
 15 14  2  0
 14 16  1  0
 17 15  1  0
 16 18  2  0
 19 17  2  0
 18 19  1  0
 20 19  1  0
 21 20  1  0
 20 22  2  0
 23 21  1  0
 24 23  1  0
 23 25  1  0
 26 24  1  0
 25 27  2  0
 25 28  1  0
 29 26  1  0
 30 29  1  0
M  END
>  <pIC50>  (58) 
5.42

>  <ChEMBL_ID>  (58) 
CHEMBL43288

>  <document_journal>  (58) 
J. Med. Chem.

>  <bao_endpoint>  (58) 
BAO_0000190

>  <potential_duplicate>  (58) 
False

>  <uo_units>  (58) 
UO_0000065

>  <canonical_smiles>  (58) 
NCCCC(NC(=O)c1ccc(SCc2ccc3ncnc(O)c3c2)cc1)C(=O)O

>  <parent_molecule_chembl_id>  (58) 
CHEMBL43288

>  <assay_type>  (58) 
B

>  <src_id>  (58) 
1

>  <ligand_efficiency>  (58) 
{u'le': u'0.25', u'bei': u'12.71', u'sei': u'3.31', u'lle': u'5.45'}

>  <standard_flag>  (58) 
True

>  <molecule_chembl_id>  (58) 
CHEMBL43288

>  <target_organism>  (58) 
Homo sapiens

>  <standard_units>  (58) 
nM

>  <record_id>  (58) 
63653

>  <document_chembl_id>  (58) 
CHEMBL1124621

>  <bao_format>  (58) 
BAO_0000357

>  <data_validity_description>  (58) 
None

>  <activity_id>  (58) 
478065

>  <standard_type>  (58) 
IC50

>  <target_chembl_id>  (58) 
CHEMBL202

>  <data_validity_comment>  (58) 
None

>  <published_value>  (58) 
3.8

>  <document_year>  (58) 
1989

>  <target_pref_name>  (58) 
Dihydrofolate reductase

>  <assay_chembl_id>  (58) 
CHEMBL669445

>  <standard_relation>  (58) 
=

>  <assay_description>  (58) 
Inhibition of human dihydrofolate reductase

>  <published_relation>  (58) 
=

>  <standard_value>  (58) 
3800

>  <qudt_units>  (58) 
http://www.openphacts.org/units/Nanomolar

>  <target_tax_id>  (58) 
9606

>  <bao_label>  (58) 
single protein format

>  <published_units>  (58) 
uM

>  <pchembl_value>  (58) 
5.42

>  <published_type>  (58) 
I50

>  <activity_comment>  (58) 
None

$$$$

     RDKit          

 31 33  0  0  0  0  0  0  0  0999 V2000
    0.0000    0.0000    0.0000 O   0  0  0  0  0  0  0  0  0  0  0  0
    0.0000    0.0000    0.0000 C   0  0  0  0  0  0  0  0  0  0  0  0
    0.0000    0.0000    0.0000 N   0  0  0  0  0  0  0  0  0  0  0  0
    0.0000    0.0000    0.0000 C   0  0  0  0  0  0  0  0  0  0  0  0
    0.0000    0.0000    0.0000 C   0  0  0  0  0  0  0  0  0  0  0  0
    0.0000    0.0000    0.0000 C   0  0  0  0  0  0  0  0  0  0  0  0
    0.0000    0.0000    0.0000 C   0  0  0  0  0  0  0  0  0  0  0  0
    0.0000    0.0000    0.0000 C   0  0  0  0  0  0  0  0  0  0  0  0
    0.0000    0.0000    0.0000 N   0  0  0  0  0  0  0  0  0  0  0  0
    0.0000    0.0000    0.0000 C   0  0  0  0  0  0  0  0  0  0  0  0
    0.0000    0.0000    0.0000 C   0  0  0  0  0  0  0  0  0  0  0  0
    0.0000    0.0000    0.0000 C   0  0  0  0  0  0  0  0  0  0  0  0
    0.0000    0.0000    0.0000 S   0  0  0  0  0  0  0  0  0  0  0  0
    0.0000    0.0000    0.0000 N   0  0  0  0  0  0  0  0  0  0  0  0
    0.0000    0.0000    0.0000 C   0  0  0  0  0  0  0  0  0  0  0  0
    0.0000    0.0000    0.0000 C   0  0  0  0  0  0  0  0  0  0  0  0
    0.0000    0.0000    0.0000 C   0  0  0  0  0  0  0  0  0  0  0  0
    0.0000    0.0000    0.0000 C   0  0  0  0  0  0  0  0  0  0  0  0
    0.0000    0.0000    0.0000 C   0  0  0  0  0  0  0  0  0  0  0  0
    0.0000    0.0000    0.0000 C   0  0  0  0  0  0  0  0  0  0  0  0
    0.0000    0.0000    0.0000 C   0  0  0  0  0  0  0  0  0  0  0  0
    0.0000    0.0000    0.0000 N   0  0  0  0  0  0  0  0  0  0  0  0
    0.0000    0.0000    0.0000 O   0  0  0  0  0  0  0  0  0  0  0  0
    0.0000    0.0000    0.0000 C   0  0  0  0  0  0  0  0  0  0  0  0
    0.0000    0.0000    0.0000 C   0  0  0  0  0  0  0  0  0  0  0  0
    0.0000    0.0000    0.0000 C   0  0  0  0  0  0  0  0  0  0  0  0
    0.0000    0.0000    0.0000 C   0  0  0  0  0  0  0  0  0  0  0  0
    0.0000    0.0000    0.0000 O   0  0  0  0  0  0  0  0  0  0  0  0
    0.0000    0.0000    0.0000 O   0  0  0  0  0  0  0  0  0  0  0  0
    0.0000    0.0000    0.0000 C   0  0  0  0  0  0  0  0  0  0  0  0
    0.0000    0.0000    0.0000 N   0  0  0  0  0  0  0  0  0  0  0  0
  1  2  2  0
  2  3  1  0
  2  4  1  0
  4  5  2  0
  4  6  1  0
  5  7  1  0
  8  6  2  0
  6  9  1  0
 10  7  1  0
  7 11  2  0
 11  8  1  0
  9 12  2  0
 13 10  1  0
 12 14  1  0
 12  3  1  0
 15 13  1  0
 16 15  2  0
 15 17  1  0
 18 16  1  0
 17 19  2  0
 20 18  2  0
 19 20  1  0
 21 20  1  0
 22 21  1  0
 21 23  2  0
 24 22  1  0
 25 24  1  0
 24 26  1  0
 27 25  1  0
 26 28  2  0
 26 29  1  0
 30 27  1  0
 31 30  1  0
M  END
>  <pIC50>  (59) 
5.82

>  <ChEMBL_ID>  (59) 
CHEMBL41161

>  <document_journal>  (59) 
J. Med. Chem.

>  <bao_endpoint>  (59) 
BAO_0000190

>  <potential_duplicate>  (59) 
False

>  <uo_units>  (59) 
UO_0000065

>  <canonical_smiles>  (59) 
NCCCC(NC(=O)c1ccc(SCc2ccc3nc(N)nc(O)c3c2)cc1)C(=O)O

>  <parent_molecule_chembl_id>  (59) 
CHEMBL41161

>  <assay_type>  (59) 
B

>  <src_id>  (59) 
1

>  <ligand_efficiency>  (59) 
{u'le': u'0.26', u'bei': u'13.19', u'sei': u'3.07', u'lle': u'6.08'}

>  <standard_flag>  (59) 
True

>  <molecule_chembl_id>  (59) 
CHEMBL41161

>  <target_organism>  (59) 
Homo sapiens

>  <standard_units>  (59) 
nM

>  <record_id>  (59) 
63652

>  <document_chembl_id>  (59) 
CHEMBL1124621

>  <bao_format>  (59) 
BAO_0000357

>  <data_validity_description>  (59) 
None

>  <activity_id>  (59) 
485473

>  <standard_type>  (59) 
IC50

>  <target_chembl_id>  (59) 
CHEMBL202

>  <data_validity_comment>  (59) 
None

>  <published_value>  (59) 
1.5

>  <document_year>  (59) 
1989

>  <target_pref_name>  (59) 
Dihydrofolate reductase

>  <assay_chembl_id>  (59) 
CHEMBL669445

>  <standard_relation>  (59) 
=

>  <assay_description>  (59) 
Inhibition of human dihydrofolate reductase

>  <published_relation>  (59) 
=

>  <standard_value>  (59) 
1500

>  <qudt_units>  (59) 
http://www.openphacts.org/units/Nanomolar

>  <target_tax_id>  (59) 
9606

>  <bao_label>  (59) 
single protein format

>  <published_units>  (59) 
uM

>  <pchembl_value>  (59) 
5.82

>  <published_type>  (59) 
I50

>  <activity_comment>  (59) 
None

$$$$

     RDKit          

 32 34  0  0  0  0  0  0  0  0999 V2000
    0.0000    0.0000    0.0000 N   0  0  0  0  0  0  0  0  0  0  0  0
    0.0000    0.0000    0.0000 C   0  0  0  0  0  0  0  0  0  0  0  0
    0.0000    0.0000    0.0000 C   0  0  0  0  0  0  0  0  0  0  0  0
    0.0000    0.0000    0.0000 C   0  0  0  0  0  0  0  0  0  0  0  0
    0.0000    0.0000    0.0000 C   0  0  0  0  0  0  0  0  0  0  0  0
    0.0000    0.0000    0.0000 N   0  0  0  0  0  0  0  0  0  0  0  0
    0.0000    0.0000    0.0000 C   0  0  0  0  0  0  0  0  0  0  0  0
    0.0000    0.0000    0.0000 O   0  0  0  0  0  0  0  0  0  0  0  0
    0.0000    0.0000    0.0000 C   0  0  0  0  0  0  0  0  0  0  0  0
    0.0000    0.0000    0.0000 C   0  0  0  0  0  0  0  0  0  0  0  0
    0.0000    0.0000    0.0000 C   0  0  0  0  0  0  0  0  0  0  0  0
    0.0000    0.0000    0.0000 C   0  0  0  0  0  0  0  0  0  0  0  0
    0.0000    0.0000    0.0000 N   0  0  0  0  0  0  0  0  0  0  0  0
    0.0000    0.0000    0.0000 C   0  0  0  0  0  0  0  0  0  0  0  0
    0.0000    0.0000    0.0000 C   0  0  0  0  0  0  0  0  0  0  0  0
    0.0000    0.0000    0.0000 C   0  0  0  0  0  0  0  0  0  0  0  0
    0.0000    0.0000    0.0000 C   0  0  0  0  0  0  0  0  0  0  0  0
    0.0000    0.0000    0.0000 C   0  0  0  0  0  0  0  0  0  0  0  0
    0.0000    0.0000    0.0000 N   0  0  0  0  0  0  0  0  0  0  0  0
    0.0000    0.0000    0.0000 C   0  0  0  0  0  0  0  0  0  0  0  0
    0.0000    0.0000    0.0000 N   0  0  0  0  0  0  0  0  0  0  0  0
    0.0000    0.0000    0.0000 N   0  0  0  0  0  0  0  0  0  0  0  0
    0.0000    0.0000    0.0000 C   0  0  0  0  0  0  0  0  0  0  0  0
    0.0000    0.0000    0.0000 N   0  0  0  0  0  0  0  0  0  0  0  0
    0.0000    0.0000    0.0000 C   0  0  0  0  0  0  0  0  0  0  0  0
    0.0000    0.0000    0.0000 C   0  0  0  0  0  0  0  0  0  0  0  0
    0.0000    0.0000    0.0000 Cl  0  0  0  0  0  0  0  0  0  0  0  0
    0.0000    0.0000    0.0000 C   0  0  0  0  0  0  0  0  0  0  0  0
    0.0000    0.0000    0.0000 C   0  0  0  0  0  0  0  0  0  0  0  0
    0.0000    0.0000    0.0000 C   0  0  0  0  0  0  0  0  0  0  0  0
    0.0000    0.0000    0.0000 O   0  0  0  0  0  0  0  0  0  0  0  0
    0.0000    0.0000    0.0000 O   0  0  0  0  0  0  0  0  0  0  0  0
  1  2  1  0
  2  3  1  0
  3  4  1  0
  4  5  1  0
  5  6  1  0
  6  7  1  0
  7  8  2  0
  7  9  1  0
  9 10  2  0
 10 11  1  0
 11 12  2  0
 12 13  1  0
 13 14  1  0
 14 15  1  0
 15 16  2  0
 16 17  1  0
 17 18  2  0
 18 19  1  0
 19 20  2  0
 20 21  1  0
 20 22  1  0
 22 23  2  0
 23 24  1  0
 23 25  1  0
 25 26  2  0
 26 27  1  0
 12 28  1  0
 28 29  2  0
  5 30  1  0
 30 31  2  0
 30 32  1  0
 29  9  1  0
 26 15  1  0
 25 18  1  0
M  END
>  <pIC50>  (60) 
8.52

>  <ChEMBL_ID>  (60) 
CHEMBL38937

>  <document_journal>  (60) 
J. Med. Chem.

>  <bao_endpoint>  (60) 
BAO_0000190

>  <potential_duplicate>  (60) 
False

>  <uo_units>  (60) 
UO_0000065

>  <canonical_smiles>  (60) 
NCCCC(NC(=O)c1ccc(NCc2ccc3nc(N)nc(N)c3c2Cl)cc1)C(=O)O

>  <parent_molecule_chembl_id>  (60) 
CHEMBL38937

>  <assay_type>  (60) 
B

>  <src_id>  (60) 
1

>  <ligand_efficiency>  (60) 
{u'le': u'0.36', u'bei': u'18.61', u'sei': u'4.68', u'lle': u'9.35'}

>  <standard_flag>  (60) 
True

>  <molecule_chembl_id>  (60) 
CHEMBL38937

>  <target_organism>  (60) 
Homo sapiens

>  <standard_units>  (60) 
nM

>  <record_id>  (60) 
63658

>  <document_chembl_id>  (60) 
CHEMBL1124621

>  <bao_format>  (60) 
BAO_0000357

>  <data_validity_description>  (60) 
None

>  <activity_id>  (60) 
491394

>  <standard_type>  (60) 
IC50

>  <target_chembl_id>  (60) 
CHEMBL202

>  <data_validity_comment>  (60) 
None

>  <published_value>  (60) 
0.003

>  <document_year>  (60) 
1989

>  <target_pref_name>  (60) 
Dihydrofolate reductase

>  <assay_chembl_id>  (60) 
CHEMBL669445

>  <standard_relation>  (60) 
=

>  <assay_description>  (60) 
Inhibition of human dihydrofolate reductase

>  <published_relation>  (60) 
=

>  <standard_value>  (60) 
3

>  <qudt_units>  (60) 
http://www.openphacts.org/units/Nanomolar

>  <target_tax_id>  (60) 
9606

>  <bao_label>  (60) 
single protein format

>  <published_units>  (60) 
uM

>  <pchembl_value>  (60) 
8.52

>  <published_type>  (60) 
I50

>  <activity_comment>  (60) 
None

$$$$

     RDKit          

 31 33  0  0  0  0  0  0  0  0999 V2000
    0.0000    0.0000    0.0000 O   0  0  0  0  0  0  0  0  0  0  0  0
    0.0000    0.0000    0.0000 C   0  0  0  0  0  0  0  0  0  0  0  0
    0.0000    0.0000    0.0000 N   0  0  0  0  0  0  0  0  0  0  0  0
    0.0000    0.0000    0.0000 C   0  0  0  0  0  0  0  0  0  0  0  0
    0.0000    0.0000    0.0000 C   0  0  0  0  0  0  0  0  0  0  0  0
    0.0000    0.0000    0.0000 C   0  0  0  0  0  0  0  0  0  0  0  0
    0.0000    0.0000    0.0000 C   0  0  0  0  0  0  0  0  0  0  0  0
    0.0000    0.0000    0.0000 C   0  0  0  0  0  0  0  0  0  0  0  0
    0.0000    0.0000    0.0000 N   0  0  0  0  0  0  0  0  0  0  0  0
    0.0000    0.0000    0.0000 C   0  0  0  0  0  0  0  0  0  0  0  0
    0.0000    0.0000    0.0000 C   0  0  0  0  0  0  0  0  0  0  0  0
    0.0000    0.0000    0.0000 C   0  0  0  0  0  0  0  0  0  0  0  0
    0.0000    0.0000    0.0000 O   0  0  0  0  0  0  0  0  0  0  0  0
    0.0000    0.0000    0.0000 N   0  0  0  0  0  0  0  0  0  0  0  0
    0.0000    0.0000    0.0000 C   0  0  0  0  0  0  0  0  0  0  0  0
    0.0000    0.0000    0.0000 C   0  0  0  0  0  0  0  0  0  0  0  0
    0.0000    0.0000    0.0000 C   0  0  0  0  0  0  0  0  0  0  0  0
    0.0000    0.0000    0.0000 C   0  0  0  0  0  0  0  0  0  0  0  0
    0.0000    0.0000    0.0000 C   0  0  0  0  0  0  0  0  0  0  0  0
    0.0000    0.0000    0.0000 C   0  0  0  0  0  0  0  0  0  0  0  0
    0.0000    0.0000    0.0000 C   0  0  0  0  0  0  0  0  0  0  0  0
    0.0000    0.0000    0.0000 N   0  0  0  0  0  0  0  0  0  0  0  0
    0.0000    0.0000    0.0000 O   0  0  0  0  0  0  0  0  0  0  0  0
    0.0000    0.0000    0.0000 C   0  0  0  0  0  0  0  0  0  0  0  0
    0.0000    0.0000    0.0000 C   0  0  0  0  0  0  0  0  0  0  0  0
    0.0000    0.0000    0.0000 C   0  0  0  0  0  0  0  0  0  0  0  0
    0.0000    0.0000    0.0000 C   0  0  0  0  0  0  0  0  0  0  0  0
    0.0000    0.0000    0.0000 O   0  0  0  0  0  0  0  0  0  0  0  0
    0.0000    0.0000    0.0000 O   0  0  0  0  0  0  0  0  0  0  0  0
    0.0000    0.0000    0.0000 C   0  0  0  0  0  0  0  0  0  0  0  0
    0.0000    0.0000    0.0000 N   0  0  0  0  0  0  0  0  0  0  0  0
  1  2  2  0
  2  3  1  0
  2  4  1  0
  4  5  2  0
  4  6  1  0
  5  7  1  0
  8  6  2  0
  6  9  1  0
 10  7  1  0
  7 11  2  0
 11  8  1  0
  9 12  2  0
 13 10  1  0
 12 14  1  0
 12  3  1  0
 15 13  1  0
 16 15  2  0
 15 17  1  0
 18 16  1  0
 17 19  2  0
 20 18  2  0
 19 20  1  0
 21 20  1  0
 22 21  1  0
 21 23  2  0
 24 22  1  0
 25 24  1  0
 24 26  1  0
 27 25  1  0
 26 28  2  0
 26 29  1  0
 30 27  1  0
 31 30  1  0
M  END
>  <pIC50>  (61) 
6.28

>  <ChEMBL_ID>  (61) 
CHEMBL289372

>  <document_journal>  (61) 
J. Med. Chem.

>  <bao_endpoint>  (61) 
BAO_0000190

>  <potential_duplicate>  (61) 
False

>  <uo_units>  (61) 
UO_0000065

>  <canonical_smiles>  (61) 
NCCCC(NC(=O)c1ccc(OCc2ccc3nc(N)nc(O)c3c2)cc1)C(=O)O

>  <parent_molecule_chembl_id>  (61) 
CHEMBL289372

>  <assay_type>  (61) 
B

>  <src_id>  (61) 
1

>  <ligand_efficiency>  (61) 
{u'le': u'0.28', u'bei': u'14.75', u'sei': u'3.61', u'lle': u'7.09'}

>  <standard_flag>  (61) 
True

>  <molecule_chembl_id>  (61) 
CHEMBL289372

>  <target_organism>  (61) 
Homo sapiens

>  <standard_units>  (61) 
nM

>  <record_id>  (61) 
63650

>  <document_chembl_id>  (61) 
CHEMBL1124621

>  <bao_format>  (61) 
BAO_0000357

>  <data_validity_description>  (61) 
None

>  <activity_id>  (61) 
493786

>  <standard_type>  (61) 
IC50

>  <target_chembl_id>  (61) 
CHEMBL202

>  <data_validity_comment>  (61) 
None

>  <published_value>  (61) 
0.53

>  <document_year>  (61) 
1989

>  <target_pref_name>  (61) 
Dihydrofolate reductase

>  <assay_chembl_id>  (61) 
CHEMBL669445

>  <standard_relation>  (61) 
=

>  <assay_description>  (61) 
Inhibition of human dihydrofolate reductase

>  <published_relation>  (61) 
=

>  <standard_value>  (61) 
530

>  <qudt_units>  (61) 
http://www.openphacts.org/units/Nanomolar

>  <target_tax_id>  (61) 
9606

>  <bao_label>  (61) 
single protein format

>  <published_units>  (61) 
uM

>  <pchembl_value>  (61) 
6.28

>  <published_type>  (61) 
I50

>  <activity_comment>  (61) 
None

$$$$

     RDKit          

 30 32  0  0  0  0  0  0  0  0999 V2000
    0.0000    0.0000    0.0000 O   0  0  0  0  0  0  0  0  0  0  0  0
    0.0000    0.0000    0.0000 C   0  0  0  0  0  0  0  0  0  0  0  0
    0.0000    0.0000    0.0000 N   0  0  0  0  0  0  0  0  0  0  0  0
    0.0000    0.0000    0.0000 C   0  0  0  0  0  0  0  0  0  0  0  0
    0.0000    0.0000    0.0000 C   0  0  0  0  0  0  0  0  0  0  0  0
    0.0000    0.0000    0.0000 C   0  0  0  0  0  0  0  0  0  0  0  0
    0.0000    0.0000    0.0000 C   0  0  0  0  0  0  0  0  0  0  0  0
    0.0000    0.0000    0.0000 C   0  0  0  0  0  0  0  0  0  0  0  0
    0.0000    0.0000    0.0000 N   0  0  0  0  0  0  0  0  0  0  0  0
    0.0000    0.0000    0.0000 C   0  0  0  0  0  0  0  0  0  0  0  0
    0.0000    0.0000    0.0000 C   0  0  0  0  0  0  0  0  0  0  0  0
    0.0000    0.0000    0.0000 C   0  0  0  0  0  0  0  0  0  0  0  0
    0.0000    0.0000    0.0000 O   0  0  0  0  0  0  0  0  0  0  0  0
    0.0000    0.0000    0.0000 C   0  0  0  0  0  0  0  0  0  0  0  0
    0.0000    0.0000    0.0000 C   0  0  0  0  0  0  0  0  0  0  0  0
    0.0000    0.0000    0.0000 C   0  0  0  0  0  0  0  0  0  0  0  0
    0.0000    0.0000    0.0000 C   0  0  0  0  0  0  0  0  0  0  0  0
    0.0000    0.0000    0.0000 C   0  0  0  0  0  0  0  0  0  0  0  0
    0.0000    0.0000    0.0000 C   0  0  0  0  0  0  0  0  0  0  0  0
    0.0000    0.0000    0.0000 C   0  0  0  0  0  0  0  0  0  0  0  0
    0.0000    0.0000    0.0000 N   0  0  0  0  0  0  0  0  0  0  0  0
    0.0000    0.0000    0.0000 O   0  0  0  0  0  0  0  0  0  0  0  0
    0.0000    0.0000    0.0000 C   0  0  0  0  0  0  0  0  0  0  0  0
    0.0000    0.0000    0.0000 C   0  0  0  0  0  0  0  0  0  0  0  0
    0.0000    0.0000    0.0000 C   0  0  0  0  0  0  0  0  0  0  0  0
    0.0000    0.0000    0.0000 C   0  0  0  0  0  0  0  0  0  0  0  0
    0.0000    0.0000    0.0000 O   0  0  0  0  0  0  0  0  0  0  0  0
    0.0000    0.0000    0.0000 O   0  0  0  0  0  0  0  0  0  0  0  0
    0.0000    0.0000    0.0000 C   0  0  0  0  0  0  0  0  0  0  0  0
    0.0000    0.0000    0.0000 N   0  0  0  0  0  0  0  0  0  0  0  0
  1  2  2  0
  2  3  1  0
  2  4  1  0
  4  5  2  0
  4  6  1  0
  5  7  1  0
  8  6  2  0
  6  9  1  0
 10  7  1  0
  7 11  2  0
 11  8  1  0
  9 12  2  0
 13 10  1  0
 12  3  1  0
 14 13  1  0
 15 14  2  0
 14 16  1  0
 17 15  1  0
 16 18  2  0
 19 17  2  0
 18 19  1  0
 20 19  1  0
 21 20  1  0
 20 22  2  0
 23 21  1  0
 24 23  1  0
 23 25  1  0
 26 24  1  0
 25 27  2  0
 25 28  1  0
 29 26  1  0
 30 29  1  0
M  END
>  <pIC50>  (62) 
5.42

>  <ChEMBL_ID>  (62) 
CHEMBL39107

>  <document_journal>  (62) 
J. Med. Chem.

>  <bao_endpoint>  (62) 
BAO_0000190

>  <potential_duplicate>  (62) 
False

>  <uo_units>  (62) 
UO_0000065

>  <canonical_smiles>  (62) 
NCCCC(NC(=O)c1ccc(OCc2ccc3ncnc(O)c3c2)cc1)C(=O)O

>  <parent_molecule_chembl_id>  (62) 
CHEMBL39107

>  <assay_type>  (62) 
B

>  <src_id>  (62) 
1

>  <ligand_efficiency>  (62) 
{u'le': u'0.25', u'bei': u'13.21', u'sei': u'3.67', u'lle': u'6.01'}

>  <standard_flag>  (62) 
True

>  <molecule_chembl_id>  (62) 
CHEMBL39107

>  <target_organism>  (62) 
Homo sapiens

>  <standard_units>  (62) 
nM

>  <record_id>  (62) 
63651

>  <document_chembl_id>  (62) 
CHEMBL1124621

>  <bao_format>  (62) 
BAO_0000357

>  <data_validity_description>  (62) 
None

>  <activity_id>  (62) 
494904

>  <standard_type>  (62) 
IC50

>  <target_chembl_id>  (62) 
CHEMBL202

>  <data_validity_comment>  (62) 
None

>  <published_value>  (62) 
3.8

>  <document_year>  (62) 
1989

>  <target_pref_name>  (62) 
Dihydrofolate reductase

>  <assay_chembl_id>  (62) 
CHEMBL669445

>  <standard_relation>  (62) 
=

>  <assay_description>  (62) 
Inhibition of human dihydrofolate reductase

>  <published_relation>  (62) 
=

>  <standard_value>  (62) 
3800

>  <qudt_units>  (62) 
http://www.openphacts.org/units/Nanomolar

>  <target_tax_id>  (62) 
9606

>  <bao_label>  (62) 
single protein format

>  <published_units>  (62) 
uM

>  <pchembl_value>  (62) 
5.42

>  <published_type>  (62) 
I50

>  <activity_comment>  (62) 
None

$$$$

     RDKit          

 32 34  0  0  0  0  0  0  0  0999 V2000
    0.0000    0.0000    0.0000 O   0  0  0  0  0  0  0  0  0  0  0  0
    0.0000    0.0000    0.0000 C   0  0  0  0  0  0  0  0  0  0  0  0
    0.0000    0.0000    0.0000 N   0  0  0  0  0  0  0  0  0  0  0  0
    0.0000    0.0000    0.0000 C   0  0  0  0  0  0  0  0  0  0  0  0
    0.0000    0.0000    0.0000 C   0  0  0  0  0  0  0  0  0  0  0  0
    0.0000    0.0000    0.0000 C   0  0  0  0  0  0  0  0  0  0  0  0
    0.0000    0.0000    0.0000 C   0  0  0  0  0  0  0  0  0  0  0  0
    0.0000    0.0000    0.0000 C   0  0  0  0  0  0  0  0  0  0  0  0
    0.0000    0.0000    0.0000 N   0  0  0  0  0  0  0  0  0  0  0  0
    0.0000    0.0000    0.0000 C   0  0  0  0  0  0  0  0  0  0  0  0
    0.0000    0.0000    0.0000 C   0  0  0  0  0  0  0  0  0  0  0  0
    0.0000    0.0000    0.0000 C   0  0  0  0  0  0  0  0  0  0  0  0
    0.0000    0.0000    0.0000 O   0  0  0  0  0  0  0  0  0  0  0  0
    0.0000    0.0000    0.0000 N   0  0  0  0  0  0  0  0  0  0  0  0
    0.0000    0.0000    0.0000 C   0  0  0  0  0  0  0  0  0  0  0  0
    0.0000    0.0000    0.0000 C   0  0  0  0  0  0  0  0  0  0  0  0
    0.0000    0.0000    0.0000 C   0  0  0  0  0  0  0  0  0  0  0  0
    0.0000    0.0000    0.0000 C   0  0  0  0  0  0  0  0  0  0  0  0
    0.0000    0.0000    0.0000 C   0  0  0  0  0  0  0  0  0  0  0  0
    0.0000    0.0000    0.0000 C   0  0  0  0  0  0  0  0  0  0  0  0
    0.0000    0.0000    0.0000 C   0  0  0  0  0  0  0  0  0  0  0  0
    0.0000    0.0000    0.0000 O   0  0  0  0  0  0  0  0  0  0  0  0
    0.0000    0.0000    0.0000 N   0  0  0  0  0  0  0  0  0  0  0  0
    0.0000    0.0000    0.0000 C   0  0  0  0  0  0  0  0  0  0  0  0
    0.0000    0.0000    0.0000 C   0  0  0  0  0  0  0  0  0  0  0  0
    0.0000    0.0000    0.0000 C   0  0  0  0  0  0  0  0  0  0  0  0
    0.0000    0.0000    0.0000 C   0  0  0  0  0  0  0  0  0  0  0  0
    0.0000    0.0000    0.0000 O   0  0  0  0  0  0  0  0  0  0  0  0
    0.0000    0.0000    0.0000 O   0  0  0  0  0  0  0  0  0  0  0  0
    0.0000    0.0000    0.0000 C   0  0  0  0  0  0  0  0  0  0  0  0
    0.0000    0.0000    0.0000 O   0  0  0  0  0  0  0  0  0  0  0  0
    0.0000    0.0000    0.0000 O   0  0  0  0  0  0  0  0  0  0  0  0
  1  2  2  0
  2  3  1  0
  2  4  1  0
  4  5  2  0
  6  4  1  0
  5  7  1  0
  8  6  2  0
  6  9  1  0
  7 10  1  0
  7 11  2  0
 11  8  1  0
  9 12  2  0
 10 13  1  0
 14 12  1  0
 12  3  1  0
 13 15  1  0
 15 16  2  0
 17 15  1  0
 16 18  1  0
 19 17  2  0
 18 20  2  0
 20 19  1  0
 20 21  1  0
 21 22  2  0
 21 23  1  0
 23 24  1  0
 24 25  1  0
 24 26  1  0
 25 27  1  0
 26 28  2  0
 26 29  1  0
 27 30  1  0
 30 31  2  0
 30 32  1  0
M  END
>  <pIC50>  (63) 
6.77

>  <ChEMBL_ID>  (63) 
CHEMBL139551

>  <document_journal>  (63) 
J. Med. Chem.

>  <bao_endpoint>  (63) 
BAO_0000190

>  <potential_duplicate>  (63) 
True

>  <uo_units>  (63) 
UO_0000065

>  <canonical_smiles>  (63) 
Nc1nc(O)c2cc(COc3ccc(cc3)C(=O)NC(CCC(=O)O)C(=O)O)ccc2n1

>  <parent_molecule_chembl_id>  (63) 
CHEMBL139551

>  <assay_type>  (63) 
B

>  <src_id>  (63) 
1

>  <ligand_efficiency>  (63) 
{u'le': u'0.29', u'bei': u'15.37', u'sei': u'3.66', u'lle': u'4.87'}

>  <standard_flag>  (63) 
True

>  <molecule_chembl_id>  (63) 
CHEMBL139551

>  <target_organism>  (63) 
Homo sapiens

>  <standard_units>  (63) 
nM

>  <record_id>  (63) 
63655

>  <document_chembl_id>  (63) 
CHEMBL1124621

>  <bao_format>  (63) 
BAO_0000357

>  <data_validity_description>  (63) 
None

>  <activity_id>  (63) 
502023

>  <standard_type>  (63) 
IC50

>  <target_chembl_id>  (63) 
CHEMBL202

>  <data_validity_comment>  (63) 
None

>  <published_value>  (63) 
0.17

>  <document_year>  (63) 
1989

>  <target_pref_name>  (63) 
Dihydrofolate reductase

>  <assay_chembl_id>  (63) 
CHEMBL669445

>  <standard_relation>  (63) 
=

>  <assay_description>  (63) 
Inhibition of human dihydrofolate reductase

>  <published_relation>  (63) 
=

>  <standard_value>  (63) 
170

>  <qudt_units>  (63) 
http://www.openphacts.org/units/Nanomolar

>  <target_tax_id>  (63) 
9606

>  <bao_label>  (63) 
single protein format

>  <published_units>  (63) 
uM

>  <pchembl_value>  (63) 
6.77

>  <published_type>  (63) 
I50

>  <activity_comment>  (63) 
None

$$$$

     RDKit          

 34 36  0  0  0  0  0  0  0  0999 V2000
    0.0000    0.0000    0.0000 C   0  0  0  0  0  0  0  0  0  0  0  0
    0.0000    0.0000    0.0000 N   0  0  0  0  0  0  0  0  0  0  0  0
    0.0000    0.0000    0.0000 C   0  0  0  0  0  0  0  0  0  0  0  0
    0.0000    0.0000    0.0000 C   0  0  0  0  0  0  0  0  0  0  0  0
    0.0000    0.0000    0.0000 C   0  0  0  0  0  0  0  0  0  0  0  0
    0.0000    0.0000    0.0000 N   0  0  0  0  0  0  0  0  0  0  0  0
    0.0000    0.0000    0.0000 C   0  0  0  0  0  0  0  0  0  0  0  0
    0.0000    0.0000    0.0000 N   0  0  0  0  0  0  0  0  0  0  0  0
    0.0000    0.0000    0.0000 C   0  0  0  0  0  0  0  0  0  0  0  0
    0.0000    0.0000    0.0000 N   0  0  0  0  0  0  0  0  0  0  0  0
    0.0000    0.0000    0.0000 N   0  0  0  0  0  0  0  0  0  0  0  0
    0.0000    0.0000    0.0000 C   0  0  0  0  0  0  0  0  0  0  0  0
    0.0000    0.0000    0.0000 N   0  0  0  0  0  0  0  0  0  0  0  0
    0.0000    0.0000    0.0000 C   0  0  0  0  0  0  0  0  0  0  0  0
    0.0000    0.0000    0.0000 N   0  0  0  0  0  0  0  0  0  0  0  0
    0.0000    0.0000    0.0000 C   0  0  0  0  0  0  0  0  0  0  0  0
    0.0000    0.0000    0.0000 C   0  0  0  0  0  0  0  0  0  0  0  0
    0.0000    0.0000    0.0000 C   0  0  0  0  0  0  0  0  0  0  0  0
    0.0000    0.0000    0.0000 C   0  0  0  0  0  0  0  0  0  0  0  0
    0.0000    0.0000    0.0000 C   0  0  0  0  0  0  0  0  0  0  0  0
    0.0000    0.0000    0.0000 C   0  0  0  0  0  0  0  0  0  0  0  0
    0.0000    0.0000    0.0000 C   0  0  0  0  0  0  0  0  0  0  0  0
    0.0000    0.0000    0.0000 O   0  0  0  0  0  0  0  0  0  0  0  0
    0.0000    0.0000    0.0000 N   0  0  0  0  0  0  0  0  0  0  0  0
    0.0000    0.0000    0.0000 C   0  0  0  0  0  0  0  0  0  0  0  0
    0.0000    0.0000    0.0000 C   0  0  0  0  0  0  0  0  0  0  0  0
    0.0000    0.0000    0.0000 C   0  0  0  0  0  0  0  0  0  0  0  0
    0.0000    0.0000    0.0000 F   0  0  0  0  0  0  0  0  0  0  0  0
    0.0000    0.0000    0.0000 C   0  0  0  0  0  0  0  0  0  0  0  0
    0.0000    0.0000    0.0000 O   0  0  0  0  0  0  0  0  0  0  0  0
    0.0000    0.0000    0.0000 O   0  0  0  0  0  0  0  0  0  0  0  0
    0.0000    0.0000    0.0000 C   0  0  0  0  0  0  0  0  0  0  0  0
    0.0000    0.0000    0.0000 O   0  0  0  0  0  0  0  0  0  0  0  0
    0.0000    0.0000    0.0000 O   0  0  0  0  0  0  0  0  0  0  0  0
  1  2  1  0
  2  3  1  0
  3  4  1  0
  4  5  2  0
  5  6  1  0
  6  7  2  0
  7  8  1  0
  8  9  2  0
  9 10  1  0
  9 11  1  0
 11 12  2  0
 12 13  1  0
 12 14  1  0
 14 15  2  0
  2 16  1  0
 16 17  2  0
 17 18  1  0
 18 19  2  0
 19 20  1  0
 20 21  2  0
 19 22  1  0
 22 23  2  0
 22 24  1  0
 24 25  1  0
 25 26  1  0
 26 27  1  0
 27 28  1  0
 27 29  1  0
 29 30  2  0
 29 31  1  0
 25 32  1  0
 32 33  2  0
 32 34  1  0
 15  4  1  0
 14  7  1  0
 21 16  1  0
M  END
>  <pIC50>  (64) 
8.87

>  <ChEMBL_ID>  (64) 
CHEMBL160505

>  <document_journal>  (64) 
J. Med. Chem.

>  <bao_endpoint>  (64) 
BAO_0000190

>  <potential_duplicate>  (64) 
False

>  <uo_units>  (64) 
UO_0000065

>  <canonical_smiles>  (64) 
CN(Cc1cnc2nc(N)nc(N)c2n1)c3ccc(cc3)C(=O)NC(CC(F)C(=O)O)C(=O)O

>  <parent_molecule_chembl_id>  (64) 
CHEMBL160505

>  <assay_type>  (64) 
B

>  <src_id>  (64) 
1

>  <ligand_efficiency>  (64) 
{u'le': u'0.36', u'bei': u'18.77', u'sei': u'4.21', u'lle': u'8.73'}

>  <standard_flag>  (64) 
True

>  <molecule_chembl_id>  (64) 
CHEMBL160505

>  <target_organism>  (64) 
Homo sapiens

>  <standard_units>  (64) 
nM

>  <record_id>  (64) 
310521

>  <document_chembl_id>  (64) 
CHEMBL1129679

>  <bao_format>  (64) 
BAO_0000219

>  <data_validity_description>  (64) 
None

>  <activity_id>  (64) 
504076

>  <standard_type>  (64) 
IC50

>  <target_chembl_id>  (64) 
CHEMBL202

>  <data_validity_comment>  (64) 
None

>  <published_value>  (64) 
1.35

>  <document_year>  (64) 
1996

>  <target_pref_name>  (64) 
Dihydrofolate reductase

>  <assay_chembl_id>  (64) 
CHEMBL668271

>  <standard_relation>  (64) 
=

>  <assay_description>  (64) 
Inhibitory activity against Dihydrofolate reductase (DHFR) isolated from CCRF-CEM human leukemia cells in experiment 1

>  <published_relation>  (64) 
=

>  <standard_value>  (64) 
1.35

>  <qudt_units>  (64) 
http://www.openphacts.org/units/Nanomolar

>  <target_tax_id>  (64) 
9606

>  <bao_label>  (64) 
cell-based format

>  <published_units>  (64) 
nM

>  <pchembl_value>  (64) 
8.87

>  <published_type>  (64) 
IC50

>  <activity_comment>  (64) 
None

$$$$

     RDKit          

 34 36  0  0  0  0  0  0  0  0999 V2000
    0.0000    0.0000    0.0000 C   0  0  0  0  0  0  0  0  0  0  0  0
    0.0000    0.0000    0.0000 N   0  0  0  0  0  0  0  0  0  0  0  0
    0.0000    0.0000    0.0000 C   0  0  0  0  0  0  0  0  0  0  0  0
    0.0000    0.0000    0.0000 C   0  0  0  0  0  0  0  0  0  0  0  0
    0.0000    0.0000    0.0000 C   0  0  0  0  0  0  0  0  0  0  0  0
    0.0000    0.0000    0.0000 N   0  0  0  0  0  0  0  0  0  0  0  0
    0.0000    0.0000    0.0000 C   0  0  0  0  0  0  0  0  0  0  0  0
    0.0000    0.0000    0.0000 N   0  0  0  0  0  0  0  0  0  0  0  0
    0.0000    0.0000    0.0000 C   0  0  0  0  0  0  0  0  0  0  0  0
    0.0000    0.0000    0.0000 N   0  0  0  0  0  0  0  0  0  0  0  0
    0.0000    0.0000    0.0000 N   0  0  0  0  0  0  0  0  0  0  0  0
    0.0000    0.0000    0.0000 C   0  0  0  0  0  0  0  0  0  0  0  0
    0.0000    0.0000    0.0000 N   0  0  0  0  0  0  0  0  0  0  0  0
    0.0000    0.0000    0.0000 C   0  0  0  0  0  0  0  0  0  0  0  0
    0.0000    0.0000    0.0000 N   0  0  0  0  0  0  0  0  0  0  0  0
    0.0000    0.0000    0.0000 C   0  0  0  0  0  0  0  0  0  0  0  0
    0.0000    0.0000    0.0000 C   0  0  0  0  0  0  0  0  0  0  0  0
    0.0000    0.0000    0.0000 C   0  0  0  0  0  0  0  0  0  0  0  0
    0.0000    0.0000    0.0000 C   0  0  0  0  0  0  0  0  0  0  0  0
    0.0000    0.0000    0.0000 C   0  0  0  0  0  0  0  0  0  0  0  0
    0.0000    0.0000    0.0000 C   0  0  0  0  0  0  0  0  0  0  0  0
    0.0000    0.0000    0.0000 C   0  0  0  0  0  0  0  0  0  0  0  0
    0.0000    0.0000    0.0000 O   0  0  0  0  0  0  0  0  0  0  0  0
    0.0000    0.0000    0.0000 N   0  0  0  0  0  0  0  0  0  0  0  0
    0.0000    0.0000    0.0000 C   0  0  0  0  0  0  0  0  0  0  0  0
    0.0000    0.0000    0.0000 C   0  0  0  0  0  0  0  0  0  0  0  0
    0.0000    0.0000    0.0000 C   0  0  0  0  0  0  0  0  0  0  0  0
    0.0000    0.0000    0.0000 F   0  0  0  0  0  0  0  0  0  0  0  0
    0.0000    0.0000    0.0000 C   0  0  0  0  0  0  0  0  0  0  0  0
    0.0000    0.0000    0.0000 O   0  0  0  0  0  0  0  0  0  0  0  0
    0.0000    0.0000    0.0000 O   0  0  0  0  0  0  0  0  0  0  0  0
    0.0000    0.0000    0.0000 C   0  0  0  0  0  0  0  0  0  0  0  0
    0.0000    0.0000    0.0000 O   0  0  0  0  0  0  0  0  0  0  0  0
    0.0000    0.0000    0.0000 O   0  0  0  0  0  0  0  0  0  0  0  0
  1  2  1  0
  2  3  1  0
  3  4  1  0
  4  5  2  0
  5  6  1  0
  6  7  2  0
  7  8  1  0
  8  9  2  0
  9 10  1  0
  9 11  1  0
 11 12  2  0
 12 13  1  0
 12 14  1  0
 14 15  2  0
  2 16  1  0
 16 17  2  0
 17 18  1  0
 18 19  2  0
 19 20  1  0
 20 21  2  0
 19 22  1  0
 22 23  2  0
 22 24  1  0
 24 25  1  0
 25 26  1  0
 26 27  1  0
 27 28  1  0
 27 29  1  0
 29 30  2  0
 29 31  1  0
 25 32  1  0
 32 33  2  0
 32 34  1  0
 15  4  1  0
 14  7  1  0
 21 16  1  0
M  END
>  <pIC50>  (65) 
9.08

>  <ChEMBL_ID>  (65) 
CHEMBL349572

>  <document_journal>  (65) 
J. Med. Chem.

>  <bao_endpoint>  (65) 
BAO_0000190

>  <potential_duplicate>  (65) 
False

>  <uo_units>  (65) 
UO_0000065

>  <canonical_smiles>  (65) 
CN(Cc1cnc2nc(N)nc(N)c2n1)c3ccc(cc3)C(=O)N[C@H](C[C@@H](F)C(=O)O)C(=O)O

>  <parent_molecule_chembl_id>  (65) 
CHEMBL349572

>  <assay_type>  (65) 
B

>  <src_id>  (65) 
1

>  <ligand_efficiency>  (65) 
{u'le': u'0.36', u'bei': u'19.21', u'sei': u'4.31', u'lle': u'8.94'}

>  <standard_flag>  (65) 
True

>  <molecule_chembl_id>  (65) 
CHEMBL349572

>  <target_organism>  (65) 
Homo sapiens

>  <standard_units>  (65) 
nM

>  <record_id>  (65) 
310523

>  <document_chembl_id>  (65) 
CHEMBL1129679

>  <bao_format>  (65) 
BAO_0000219

>  <data_validity_description>  (65) 
None

>  <activity_id>  (65) 
505262

>  <standard_type>  (65) 
IC50

>  <target_chembl_id>  (65) 
CHEMBL202

>  <data_validity_comment>  (65) 
None

>  <published_value>  (65) 
0.84

>  <document_year>  (65) 
1996

>  <target_pref_name>  (65) 
Dihydrofolate reductase

>  <assay_chembl_id>  (65) 
CHEMBL668271

>  <standard_relation>  (65) 
=

>  <assay_description>  (65) 
Inhibitory activity against Dihydrofolate reductase (DHFR) isolated from CCRF-CEM human leukemia cells in experiment 1

>  <published_relation>  (65) 
=

>  <standard_value>  (65) 
0.84

>  <qudt_units>  (65) 
http://www.openphacts.org/units/Nanomolar

>  <target_tax_id>  (65) 
9606

>  <bao_label>  (65) 
cell-based format

>  <published_units>  (65) 
nM

>  <pchembl_value>  (65) 
9.08

>  <published_type>  (65) 
IC50

>  <activity_comment>  (65) 
None

$$$$

     RDKit          

 33 35  0  0  0  0  0  0  0  0999 V2000
    0.0000    0.0000    0.0000 O   0  0  0  0  0  0  0  0  0  0  0  0
    0.0000    0.0000    0.0000 C   0  0  0  0  0  0  0  0  0  0  0  0
    0.0000    0.0000    0.0000 N   0  0  0  0  0  0  0  0  0  0  0  0
    0.0000    0.0000    0.0000 C   0  0  0  0  0  0  0  0  0  0  0  0
    0.0000    0.0000    0.0000 C   0  0  0  0  0  0  0  0  0  0  0  0
    0.0000    0.0000    0.0000 C   0  0  0  0  0  0  0  0  0  0  0  0
    0.0000    0.0000    0.0000 Cl  0  0  0  0  0  0  0  0  0  0  0  0
    0.0000    0.0000    0.0000 C   0  0  0  0  0  0  0  0  0  0  0  0
    0.0000    0.0000    0.0000 C   0  0  0  0  0  0  0  0  0  0  0  0
    0.0000    0.0000    0.0000 N   0  0  0  0  0  0  0  0  0  0  0  0
    0.0000    0.0000    0.0000 C   0  0  0  0  0  0  0  0  0  0  0  0
    0.0000    0.0000    0.0000 C   0  0  0  0  0  0  0  0  0  0  0  0
    0.0000    0.0000    0.0000 C   0  0  0  0  0  0  0  0  0  0  0  0
    0.0000    0.0000    0.0000 N   0  0  0  0  0  0  0  0  0  0  0  0
    0.0000    0.0000    0.0000 N   0  0  0  0  0  0  0  0  0  0  0  0
    0.0000    0.0000    0.0000 C   0  0  0  0  0  0  0  0  0  0  0  0
    0.0000    0.0000    0.0000 C   0  0  0  0  0  0  0  0  0  0  0  0
    0.0000    0.0000    0.0000 C   0  0  0  0  0  0  0  0  0  0  0  0
    0.0000    0.0000    0.0000 C   0  0  0  0  0  0  0  0  0  0  0  0
    0.0000    0.0000    0.0000 C   0  0  0  0  0  0  0  0  0  0  0  0
    0.0000    0.0000    0.0000 C   0  0  0  0  0  0  0  0  0  0  0  0
    0.0000    0.0000    0.0000 C   0  0  0  0  0  0  0  0  0  0  0  0
    0.0000    0.0000    0.0000 O   0  0  0  0  0  0  0  0  0  0  0  0
    0.0000    0.0000    0.0000 N   0  0  0  0  0  0  0  0  0  0  0  0
    0.0000    0.0000    0.0000 C   0  0  0  0  0  0  0  0  0  0  0  0
    0.0000    0.0000    0.0000 C   0  0  0  0  0  0  0  0  0  0  0  0
    0.0000    0.0000    0.0000 C   0  0  0  0  0  0  0  0  0  0  0  0
    0.0000    0.0000    0.0000 C   0  0  0  0  0  0  0  0  0  0  0  0
    0.0000    0.0000    0.0000 O   0  0  0  0  0  0  0  0  0  0  0  0
    0.0000    0.0000    0.0000 O   0  0  0  0  0  0  0  0  0  0  0  0
    0.0000    0.0000    0.0000 C   0  0  0  0  0  0  0  0  0  0  0  0
    0.0000    0.0000    0.0000 O   0  0  0  0  0  0  0  0  0  0  0  0
    0.0000    0.0000    0.0000 O   0  0  0  0  0  0  0  0  0  0  0  0
  1  2  2  0
  2  3  1  0
  2  4  1  0
  4  5  2  0
  6  4  1  0
  5  7  1  0
  5  8  1  0
  9  6  2  0
  6 10  1  0
  8 11  1  0
  8 12  2  0
 12  9  1  0
 10 13  2  0
 11 14  1  0
 15 13  1  0
 13  3  1  0
 14 16  1  0
 16 17  2  0
 18 16  1  0
 17 19  1  0
 20 18  2  0
 19 21  2  0
 21 20  1  0
 21 22  1  0
 22 23  2  0
 22 24  1  0
 24 25  1  0
 25 26  1  0
 25 27  1  0
 26 28  1  0
 27 29  2  0
 27 30  1  0
 28 31  1  0
 31 32  2  0
 31 33  1  0
M  END
>  <pIC50>  (66) 
7.0

>  <ChEMBL_ID>  (66) 
CHEMBL38561

>  <document_journal>  (66) 
J. Med. Chem.

>  <bao_endpoint>  (66) 
BAO_0000190

>  <potential_duplicate>  (66) 
False

>  <uo_units>  (66) 
UO_0000065

>  <canonical_smiles>  (66) 
Nc1nc(O)c2c(Cl)c(CNc3ccc(cc3)C(=O)NC(CCC(=O)O)C(=O)O)ccc2n1

>  <parent_molecule_chembl_id>  (66) 
CHEMBL38561

>  <assay_type>  (66) 
B

>  <src_id>  (66) 
1

>  <ligand_efficiency>  (66) 
{u'le': u'0.29', u'bei': u'14.77', u'sei': u'3.73', u'lle': u'4.61'}

>  <standard_flag>  (66) 
True

>  <molecule_chembl_id>  (66) 
CHEMBL38561

>  <target_organism>  (66) 
Homo sapiens

>  <standard_units>  (66) 
nM

>  <record_id>  (66) 
63659

>  <document_chembl_id>  (66) 
CHEMBL1124621

>  <bao_format>  (66) 
BAO_0000357

>  <data_validity_description>  (66) 
None

>  <activity_id>  (66) 
505662

>  <standard_type>  (66) 
IC50

>  <target_chembl_id>  (66) 
CHEMBL202

>  <data_validity_comment>  (66) 
None

>  <published_value>  (66) 
0.1

>  <document_year>  (66) 
1989

>  <target_pref_name>  (66) 
Dihydrofolate reductase

>  <assay_chembl_id>  (66) 
CHEMBL669445

>  <standard_relation>  (66) 
=

>  <assay_description>  (66) 
Inhibition of human dihydrofolate reductase

>  <published_relation>  (66) 
=

>  <standard_value>  (66) 
100

>  <qudt_units>  (66) 
http://www.openphacts.org/units/Nanomolar

>  <target_tax_id>  (66) 
9606

>  <bao_label>  (66) 
single protein format

>  <published_units>  (66) 
uM

>  <pchembl_value>  (66) 
7

>  <published_type>  (66) 
I50

>  <activity_comment>  (66) 
None

$$$$

     RDKit          

 33 35  0  0  0  0  0  0  0  0999 V2000
    0.0000    0.0000    0.0000 N   0  0  0  0  0  0  0  0  0  0  0  0
    0.0000    0.0000    0.0000 C   0  0  0  0  0  0  0  0  0  0  0  0
    0.0000    0.0000    0.0000 N   0  0  0  0  0  0  0  0  0  0  0  0
    0.0000    0.0000    0.0000 C   0  0  0  0  0  0  0  0  0  0  0  0
    0.0000    0.0000    0.0000 N   0  0  0  0  0  0  0  0  0  0  0  0
    0.0000    0.0000    0.0000 C   0  0  0  0  0  0  0  0  0  0  0  0
    0.0000    0.0000    0.0000 C   0  0  0  0  0  0  0  0  0  0  0  0
    0.0000    0.0000    0.0000 Cl  0  0  0  0  0  0  0  0  0  0  0  0
    0.0000    0.0000    0.0000 C   0  0  0  0  0  0  0  0  0  0  0  0
    0.0000    0.0000    0.0000 C   0  0  0  0  0  0  0  0  0  0  0  0
    0.0000    0.0000    0.0000 N   0  0  0  0  0  0  0  0  0  0  0  0
    0.0000    0.0000    0.0000 C   0  0  0  0  0  0  0  0  0  0  0  0
    0.0000    0.0000    0.0000 C   0  0  0  0  0  0  0  0  0  0  0  0
    0.0000    0.0000    0.0000 C   0  0  0  0  0  0  0  0  0  0  0  0
    0.0000    0.0000    0.0000 C   0  0  0  0  0  0  0  0  0  0  0  0
    0.0000    0.0000    0.0000 C   0  0  0  0  0  0  0  0  0  0  0  0
    0.0000    0.0000    0.0000 C   0  0  0  0  0  0  0  0  0  0  0  0
    0.0000    0.0000    0.0000 C   0  0  0  0  0  0  0  0  0  0  0  0
    0.0000    0.0000    0.0000 O   0  0  0  0  0  0  0  0  0  0  0  0
    0.0000    0.0000    0.0000 N   0  0  0  0  0  0  0  0  0  0  0  0
    0.0000    0.0000    0.0000 C   0  0  0  0  0  0  0  0  0  0  0  0
    0.0000    0.0000    0.0000 C   0  0  0  0  0  0  0  0  0  0  0  0
    0.0000    0.0000    0.0000 C   0  0  0  0  0  0  0  0  0  0  0  0
    0.0000    0.0000    0.0000 C   0  0  0  0  0  0  0  0  0  0  0  0
    0.0000    0.0000    0.0000 O   0  0  0  0  0  0  0  0  0  0  0  0
    0.0000    0.0000    0.0000 O   0  0  0  0  0  0  0  0  0  0  0  0
    0.0000    0.0000    0.0000 C   0  0  0  0  0  0  0  0  0  0  0  0
    0.0000    0.0000    0.0000 O   0  0  0  0  0  0  0  0  0  0  0  0
    0.0000    0.0000    0.0000 O   0  0  0  0  0  0  0  0  0  0  0  0
    0.0000    0.0000    0.0000 C   0  0  0  0  0  0  0  0  0  0  0  0
    0.0000    0.0000    0.0000 C   0  0  0  0  0  0  0  0  0  0  0  0
    0.0000    0.0000    0.0000 C   0  0  0  0  0  0  0  0  0  0  0  0
    0.0000    0.0000    0.0000 N   0  0  0  0  0  0  0  0  0  0  0  0
  1  2  1  0
  2  3  2  0
  3  4  1  0
  4  5  1  0
  4  6  2  0
  6  7  1  0
  7  8  1  0
  7  9  2  0
  9 10  1  0
 10 11  1  0
 11 12  1  0
 12 13  2  0
 13 14  1  0
 14 15  2  0
 15 16  1  0
 16 17  2  0
 15 18  1  0
 18 19  2  0
 18 20  1  0
 20 21  1  0
 21 22  1  0
 22 23  1  0
 23 24  1  0
 24 25  2  0
 24 26  1  0
 21 27  1  0
 27 28  2  0
 27 29  1  0
  9 30  1  0
 30 31  2  0
 31 32  1  0
 32 33  2  0
 33  2  1  0
 32  6  1  0
 17 12  1  0
M  END
>  <pIC50>  (67) 
8.42

>  <ChEMBL_ID>  (67) 
CHEMBL37061

>  <document_journal>  (67) 
J. Med. Chem.

>  <bao_endpoint>  (67) 
BAO_0000190

>  <potential_duplicate>  (67) 
True

>  <uo_units>  (67) 
UO_0000065

>  <canonical_smiles>  (67) 
Nc1nc(N)c2c(Cl)c(CNc3ccc(cc3)C(=O)NC(CCC(=O)O)C(=O)O)ccc2n1

>  <parent_molecule_chembl_id>  (67) 
CHEMBL37061

>  <assay_type>  (67) 
B

>  <src_id>  (67) 
1

>  <ligand_efficiency>  (67) 
{u'le': u'0.35', u'bei': u'17.81', u'sei': u'4.35', u'lle': u'6.53'}

>  <standard_flag>  (67) 
True

>  <molecule_chembl_id>  (67) 
CHEMBL37061

>  <target_organism>  (67) 
Homo sapiens

>  <standard_units>  (67) 
nM

>  <record_id>  (67) 
63654

>  <document_chembl_id>  (67) 
CHEMBL1124621

>  <bao_format>  (67) 
BAO_0000357

>  <data_validity_description>  (67) 
None

>  <activity_id>  (67) 
506789

>  <standard_type>  (67) 
IC50

>  <target_chembl_id>  (67) 
CHEMBL202

>  <data_validity_comment>  (67) 
None

>  <published_value>  (67) 
0.0038

>  <document_year>  (67) 
1989

>  <target_pref_name>  (67) 
Dihydrofolate reductase

>  <assay_chembl_id>  (67) 
CHEMBL669445

>  <standard_relation>  (67) 
=

>  <assay_description>  (67) 
Inhibition of human dihydrofolate reductase

>  <published_relation>  (67) 
=

>  <standard_value>  (67) 
3.8

>  <qudt_units>  (67) 
http://www.openphacts.org/units/Nanomolar

>  <target_tax_id>  (67) 
9606

>  <bao_label>  (67) 
single protein format

>  <published_units>  (67) 
uM

>  <pchembl_value>  (67) 
8.42

>  <published_type>  (67) 
I50

>  <activity_comment>  (67) 
None

$$$$

     RDKit          

 35 37  0  0  0  0  0  0  0  0999 V2000
    0.0000    0.0000    0.0000 C   0  0  0  0  0  0  0  0  0  0  0  0
    0.0000    0.0000    0.0000 N   0  0  0  0  0  0  0  0  0  0  0  0
    0.0000    0.0000    0.0000 C   0  0  0  0  0  0  0  0  0  0  0  0
    0.0000    0.0000    0.0000 C   0  0  0  0  0  0  0  0  0  0  0  0
    0.0000    0.0000    0.0000 C   0  0  0  0  0  0  0  0  0  0  0  0
    0.0000    0.0000    0.0000 N   0  0  0  0  0  0  0  0  0  0  0  0
    0.0000    0.0000    0.0000 C   0  0  0  0  0  0  0  0  0  0  0  0
    0.0000    0.0000    0.0000 N   0  0  0  0  0  0  0  0  0  0  0  0
    0.0000    0.0000    0.0000 C   0  0  0  0  0  0  0  0  0  0  0  0
    0.0000    0.0000    0.0000 N   0  0  0  0  0  0  0  0  0  0  0  0
    0.0000    0.0000    0.0000 N   0  0  0  0  0  0  0  0  0  0  0  0
    0.0000    0.0000    0.0000 C   0  0  0  0  0  0  0  0  0  0  0  0
    0.0000    0.0000    0.0000 N   0  0  0  0  0  0  0  0  0  0  0  0
    0.0000    0.0000    0.0000 C   0  0  0  0  0  0  0  0  0  0  0  0
    0.0000    0.0000    0.0000 N   0  0  0  0  0  0  0  0  0  0  0  0
    0.0000    0.0000    0.0000 C   0  0  0  0  0  0  0  0  0  0  0  0
    0.0000    0.0000    0.0000 C   0  0  0  0  0  0  0  0  0  0  0  0
    0.0000    0.0000    0.0000 C   0  0  0  0  0  0  0  0  0  0  0  0
    0.0000    0.0000    0.0000 C   0  0  0  0  0  0  0  0  0  0  0  0
    0.0000    0.0000    0.0000 C   0  0  0  0  0  0  0  0  0  0  0  0
    0.0000    0.0000    0.0000 C   0  0  0  0  0  0  0  0  0  0  0  0
    0.0000    0.0000    0.0000 C   0  0  0  0  0  0  0  0  0  0  0  0
    0.0000    0.0000    0.0000 O   0  0  0  0  0  0  0  0  0  0  0  0
    0.0000    0.0000    0.0000 N   0  0  0  0  0  0  0  0  0  0  0  0
    0.0000    0.0000    0.0000 C   0  0  0  0  0  0  0  0  0  0  0  0
    0.0000    0.0000    0.0000 C   0  0  0  0  0  0  0  0  0  0  0  0
    0.0000    0.0000    0.0000 O   0  0  0  0  0  0  0  0  0  0  0  0
    0.0000    0.0000    0.0000 O   0  0  0  0  0  0  0  0  0  0  0  0
    0.0000    0.0000    0.0000 C   0  0  0  0  0  0  0  0  0  0  0  0
    0.0000    0.0000    0.0000 F   0  0  0  0  0  0  0  0  0  0  0  0
    0.0000    0.0000    0.0000 F   0  0  0  0  0  0  0  0  0  0  0  0
    0.0000    0.0000    0.0000 C   0  0  0  0  0  0  0  0  0  0  0  0
    0.0000    0.0000    0.0000 C   0  0  0  0  0  0  0  0  0  0  0  0
    0.0000    0.0000    0.0000 O   0  0  0  0  0  0  0  0  0  0  0  0
    0.0000    0.0000    0.0000 O   0  0  0  0  0  0  0  0  0  0  0  0
  1  2  1  0
  2  3  1  0
  3  4  1  0
  4  5  2  0
  5  6  1  0
  6  7  2  0
  7  8  1  0
  8  9  2  0
  9 10  1  0
  9 11  1  0
 11 12  2  0
 12 13  1  0
 12 14  1  0
 14 15  2  0
  2 16  1  0
 16 17  2  0
 17 18  1  0
 18 19  2  0
 19 20  1  0
 20 21  2  0
 19 22  1  0
 22 23  2  0
 22 24  1  0
 24 25  1  0
 25 26  1  0
 26 27  2  0
 26 28  1  0
 25 29  1  0
 29 30  1  0
 29 31  1  0
 29 32  1  0
 32 33  1  0
 33 34  2  0
 33 35  1  0
 15  4  1  0
 14  7  1  0
 21 16  1  0
M  END
>  <pIC50>  (68) 
8.87

>  <ChEMBL_ID>  (68) 
CHEMBL160699

>  <document_journal>  (68) 
J. Med. Chem.

>  <bao_endpoint>  (68) 
BAO_0000190

>  <potential_duplicate>  (68) 
False

>  <uo_units>  (68) 
UO_0000065

>  <canonical_smiles>  (68) 
CN(Cc1cnc2nc(N)nc(N)c2n1)c3ccc(cc3)C(=O)NC(C(=O)O)C(F)(F)CC(=O)O

>  <parent_molecule_chembl_id>  (68) 
CHEMBL160699

>  <assay_type>  (68) 
B

>  <src_id>  (68) 
1

>  <ligand_efficiency>  (68) 
{u'le': u'0.35', u'bei': u'18.09', u'sei': u'4.21', u'lle': u'8.58'}

>  <standard_flag>  (68) 
True

>  <molecule_chembl_id>  (68) 
CHEMBL160699

>  <target_organism>  (68) 
Homo sapiens

>  <standard_units>  (68) 
nM

>  <record_id>  (68) 
310519

>  <document_chembl_id>  (68) 
CHEMBL1129679

>  <bao_format>  (68) 
BAO_0000219

>  <data_validity_description>  (68) 
None

>  <activity_id>  (68) 
508905

>  <standard_type>  (68) 
IC50

>  <target_chembl_id>  (68) 
CHEMBL202

>  <data_validity_comment>  (68) 
None

>  <published_value>  (68) 
1.34

>  <document_year>  (68) 
1996

>  <target_pref_name>  (68) 
Dihydrofolate reductase

>  <assay_chembl_id>  (68) 
CHEMBL668272

>  <standard_relation>  (68) 
=

>  <assay_description>  (68) 
Inhibitory activity against Dihydrofolate reductase (DHFR) isolated from CCRF-CEM human leukemia cells in experiment 2

>  <published_relation>  (68) 
=

>  <standard_value>  (68) 
1.34

>  <qudt_units>  (68) 
http://www.openphacts.org/units/Nanomolar

>  <target_tax_id>  (68) 
9606

>  <bao_label>  (68) 
cell-based format

>  <published_units>  (68) 
nM

>  <pchembl_value>  (68) 
8.87

>  <published_type>  (68) 
IC50

>  <activity_comment>  (68) 
None

$$$$

     RDKit          

 31 33  0  0  0  0  0  0  0  0999 V2000
    0.0000    0.0000    0.0000 O   0  0  0  0  0  0  0  0  0  0  0  0
    0.0000    0.0000    0.0000 C   0  0  0  0  0  0  0  0  0  0  0  0
    0.0000    0.0000    0.0000 N   0  0  0  0  0  0  0  0  0  0  0  0
    0.0000    0.0000    0.0000 C   0  0  0  0  0  0  0  0  0  0  0  0
    0.0000    0.0000    0.0000 C   0  0  0  0  0  0  0  0  0  0  0  0
    0.0000    0.0000    0.0000 C   0  0  0  0  0  0  0  0  0  0  0  0
    0.0000    0.0000    0.0000 C   0  0  0  0  0  0  0  0  0  0  0  0
    0.0000    0.0000    0.0000 C   0  0  0  0  0  0  0  0  0  0  0  0
    0.0000    0.0000    0.0000 N   0  0  0  0  0  0  0  0  0  0  0  0
    0.0000    0.0000    0.0000 C   0  0  0  0  0  0  0  0  0  0  0  0
    0.0000    0.0000    0.0000 C   0  0  0  0  0  0  0  0  0  0  0  0
    0.0000    0.0000    0.0000 C   0  0  0  0  0  0  0  0  0  0  0  0
    0.0000    0.0000    0.0000 O   0  0  0  0  0  0  0  0  0  0  0  0
    0.0000    0.0000    0.0000 C   0  0  0  0  0  0  0  0  0  0  0  0
    0.0000    0.0000    0.0000 C   0  0  0  0  0  0  0  0  0  0  0  0
    0.0000    0.0000    0.0000 C   0  0  0  0  0  0  0  0  0  0  0  0
    0.0000    0.0000    0.0000 C   0  0  0  0  0  0  0  0  0  0  0  0
    0.0000    0.0000    0.0000 C   0  0  0  0  0  0  0  0  0  0  0  0
    0.0000    0.0000    0.0000 C   0  0  0  0  0  0  0  0  0  0  0  0
    0.0000    0.0000    0.0000 C   0  0  0  0  0  0  0  0  0  0  0  0
    0.0000    0.0000    0.0000 N   0  0  0  0  0  0  0  0  0  0  0  0
    0.0000    0.0000    0.0000 O   0  0  0  0  0  0  0  0  0  0  0  0
    0.0000    0.0000    0.0000 C   0  0  0  0  0  0  0  0  0  0  0  0
    0.0000    0.0000    0.0000 C   0  0  0  0  0  0  0  0  0  0  0  0
    0.0000    0.0000    0.0000 C   0  0  0  0  0  0  0  0  0  0  0  0
    0.0000    0.0000    0.0000 C   0  0  0  0  0  0  0  0  0  0  0  0
    0.0000    0.0000    0.0000 O   0  0  0  0  0  0  0  0  0  0  0  0
    0.0000    0.0000    0.0000 O   0  0  0  0  0  0  0  0  0  0  0  0
    0.0000    0.0000    0.0000 C   0  0  0  0  0  0  0  0  0  0  0  0
    0.0000    0.0000    0.0000 O   0  0  0  0  0  0  0  0  0  0  0  0
    0.0000    0.0000    0.0000 O   0  0  0  0  0  0  0  0  0  0  0  0
  1  2  2  0
  2  3  1  0
  2  4  1  0
  4  5  2  0
  4  6  1  0
  5  7  1  0
  8  6  2  0
  6  9  1  0
 10  7  1  0
  7 11  2  0
 11  8  1  0
  9 12  2  0
 13 10  1  0
 12  3  1  0
 14 13  1  0
 15 14  2  0
 14 16  1  0
 17 15  1  0
 16 18  2  0
 19 17  2  0
 18 19  1  0
 20 19  1  0
 21 20  1  0
 20 22  2  0
 23 21  1  0
 24 23  1  0
 23 25  1  0
 26 24  1  0
 25 27  2  0
 25 28  1  0
 29 26  1  0
 30 29  1  0
 29 31  2  0
M  END
>  <pIC50>  (69) 
6.59

>  <ChEMBL_ID>  (69) 
CHEMBL354121

>  <document_journal>  (69) 
J. Med. Chem.

>  <bao_endpoint>  (69) 
BAO_0000190

>  <potential_duplicate>  (69) 
True

>  <uo_units>  (69) 
UO_0000065

>  <canonical_smiles>  (69) 
OC(=O)CCC(NC(=O)c1ccc(OCc2ccc3ncnc(O)c3c2)cc1)C(=O)O

>  <parent_molecule_chembl_id>  (69) 
CHEMBL354121

>  <assay_type>  (69) 
B

>  <src_id>  (69) 
1

>  <ligand_efficiency>  (69) 
{u'le': u'0.29', u'bei': u'15.48', u'sei': u'4.14', u'lle': u'4.46'}

>  <standard_flag>  (69) 
True

>  <molecule_chembl_id>  (69) 
CHEMBL354121

>  <target_organism>  (69) 
Homo sapiens

>  <standard_units>  (69) 
nM

>  <record_id>  (69) 
63656

>  <document_chembl_id>  (69) 
CHEMBL1124621

>  <bao_format>  (69) 
BAO_0000357

>  <data_validity_description>  (69) 
None

>  <activity_id>  (69) 
510550

>  <standard_type>  (69) 
IC50

>  <target_chembl_id>  (69) 
CHEMBL202

>  <data_validity_comment>  (69) 
None

>  <published_value>  (69) 
0.26

>  <document_year>  (69) 
1989

>  <target_pref_name>  (69) 
Dihydrofolate reductase

>  <assay_chembl_id>  (69) 
CHEMBL669445

>  <standard_relation>  (69) 
=

>  <assay_description>  (69) 
Inhibition of human dihydrofolate reductase

>  <published_relation>  (69) 
=

>  <standard_value>  (69) 
260

>  <qudt_units>  (69) 
http://www.openphacts.org/units/Nanomolar

>  <target_tax_id>  (69) 
9606

>  <bao_label>  (69) 
single protein format

>  <published_units>  (69) 
uM

>  <pchembl_value>  (69) 
6.59

>  <published_type>  (69) 
I50

>  <activity_comment>  (69) 
None

$$$$

     RDKit          

 20 22  0  0  0  0  0  0  0  0999 V2000
    0.0000    0.0000    0.0000 N   0  0  0  0  0  0  0  0  0  0  0  0
    0.0000    0.0000    0.0000 C   0  0  0  0  0  0  0  0  0  0  0  0
    0.0000    0.0000    0.0000 C   0  0  0  0  0  0  0  0  0  0  0  0
    0.0000    0.0000    0.0000 C   0  0  0  0  0  0  0  0  0  0  0  0
    0.0000    0.0000    0.0000 C   0  0  0  0  0  0  0  0  0  0  0  0
    0.0000    0.0000    0.0000 S   0  0  0  0  0  0  0  0  0  0  0  0
    0.0000    0.0000    0.0000 C   0  0  0  0  0  0  0  0  0  0  0  0
    0.0000    0.0000    0.0000 C   0  0  0  0  0  0  0  0  0  0  0  0
    0.0000    0.0000    0.0000 C   0  0  0  0  0  0  0  0  0  0  0  0
    0.0000    0.0000    0.0000 C   0  0  0  0  0  0  0  0  0  0  0  0
    0.0000    0.0000    0.0000 C   0  0  0  0  0  0  0  0  0  0  0  0
    0.0000    0.0000    0.0000 N   0  0  0  0  0  0  0  0  0  0  0  0
    0.0000    0.0000    0.0000 C   0  0  0  0  0  0  0  0  0  0  0  0
    0.0000    0.0000    0.0000 N   0  0  0  0  0  0  0  0  0  0  0  0
    0.0000    0.0000    0.0000 N   0  0  0  0  0  0  0  0  0  0  0  0
    0.0000    0.0000    0.0000 C   0  0  0  0  0  0  0  0  0  0  0  0
    0.0000    0.0000    0.0000 N   0  0  0  0  0  0  0  0  0  0  0  0
    0.0000    0.0000    0.0000 C   0  0  0  0  0  0  0  0  0  0  0  0
    0.0000    0.0000    0.0000 C   0  0  0  0  0  0  0  0  0  0  0  0
    0.0000    0.0000    0.0000 C   0  0  0  0  0  0  0  0  0  0  0  0
  1  2  1  0
  2  3  2  0
  3  4  1  0
  4  5  2  0
  5  6  1  0
  6  7  1  0
  7  8  2  0
  8  9  1  0
  9 10  2  0
 10 11  1  0
 11 12  2  0
 12 13  1  0
 13 14  1  0
 13 15  2  0
 15 16  1  0
 16 17  1  0
 16 18  2  0
  5 19  1  0
 19 20  2  0
 20  2  1  0
 18  7  1  0
 18 11  1  0
M  END
>  <pIC50>  (70) 
6.5

>  <ChEMBL_ID>  (70) 
CHEMBL333769

>  <document_journal>  (70) 
J. Med. Chem.

>  <bao_endpoint>  (70) 
BAO_0000190

>  <potential_duplicate>  (70) 
False

>  <uo_units>  (70) 
UO_0000065

>  <canonical_smiles>  (70) 
Nc1ccc(Sc2cccc3nc(N)nc(N)c23)cc1

>  <parent_molecule_chembl_id>  (70) 
CHEMBL333769

>  <assay_type>  (70) 
B

>  <src_id>  (70) 
1

>  <ligand_efficiency>  (70) 
{u'le': u'0.44', u'bei': u'22.92', u'sei': u'5.03', u'lle': u'4.16'}

>  <standard_flag>  (70) 
True

>  <molecule_chembl_id>  (70) 
CHEMBL333769

>  <target_organism>  (70) 
Homo sapiens

>  <standard_units>  (70) 
nM

>  <record_id>  (70) 
228682

>  <document_chembl_id>  (70) 
CHEMBL1128547

>  <bao_format>  (70) 
BAO_0000357

>  <data_validity_description>  (70) 
None

>  <activity_id>  (70) 
512502

>  <standard_type>  (70) 
IC50

>  <target_chembl_id>  (70) 
CHEMBL202

>  <data_validity_comment>  (70) 
None

>  <published_value>  (70) 
0.32

>  <document_year>  (70) 
1995

>  <target_pref_name>  (70) 
Dihydrofolate reductase

>  <assay_chembl_id>  (70) 
CHEMBL669279

>  <standard_relation>  (70) 
=

>  <assay_description>  (70) 
In vitro inhibition of human dihydrofolate reductase

>  <published_relation>  (70) 
=

>  <standard_value>  (70) 
320

>  <qudt_units>  (70) 
http://www.openphacts.org/units/Nanomolar

>  <target_tax_id>  (70) 
9606

>  <bao_label>  (70) 
single protein format

>  <published_units>  (70) 
uM

>  <pchembl_value>  (70) 
6.5

>  <published_type>  (70) 
I50

>  <activity_comment>  (70) 
None

$$$$

     RDKit          

 23 25  0  0  0  0  0  0  0  0999 V2000
    0.0000    0.0000    0.0000 N   0  0  0  0  0  0  0  0  0  0  0  0
    0.0000    0.0000    0.0000 C   0  0  0  0  0  0  0  0  0  0  0  0
    0.0000    0.0000    0.0000 N   0  0  0  0  0  0  0  0  0  0  0  0
    0.0000    0.0000    0.0000 C   0  0  0  0  0  0  0  0  0  0  0  0
    0.0000    0.0000    0.0000 N   0  0  0  0  0  0  0  0  0  0  0  0
    0.0000    0.0000    0.0000 C   0  0  0  0  0  0  0  0  0  0  0  0
    0.0000    0.0000    0.0000 C   0  0  0  0  0  0  0  0  0  0  0  0
    0.0000    0.0000    0.0000 S   0  0  0  0  0  0  0  0  0  0  0  0
    0.0000    0.0000    0.0000 C   0  0  0  0  0  0  0  0  0  0  0  0
    0.0000    0.0000    0.0000 C   0  0  0  0  0  0  0  0  0  0  0  0
    0.0000    0.0000    0.0000 C   0  0  0  0  0  0  0  0  0  0  0  0
    0.0000    0.0000    0.0000 C   0  0  0  0  0  0  0  0  0  0  0  0
    0.0000    0.0000    0.0000 C   0  0  0  0  0  0  0  0  0  0  0  0
    0.0000    0.0000    0.0000 C   0  0  0  0  0  0  0  0  0  0  0  0
    0.0000    0.0000    0.0000 C   0  0  0  0  0  0  0  0  0  0  0  0
    0.0000    0.0000    0.0000 F   0  0  0  0  0  0  0  0  0  0  0  0
    0.0000    0.0000    0.0000 F   0  0  0  0  0  0  0  0  0  0  0  0
    0.0000    0.0000    0.0000 F   0  0  0  0  0  0  0  0  0  0  0  0
    0.0000    0.0000    0.0000 C   0  0  0  0  0  0  0  0  0  0  0  0
    0.0000    0.0000    0.0000 C   0  0  0  0  0  0  0  0  0  0  0  0
    0.0000    0.0000    0.0000 C   0  0  0  0  0  0  0  0  0  0  0  0
    0.0000    0.0000    0.0000 C   0  0  0  0  0  0  0  0  0  0  0  0
    0.0000    0.0000    0.0000 N   0  0  0  0  0  0  0  0  0  0  0  0
  1  2  1  0
  2  3  2  0
  3  4  1  0
  4  5  1  0
  4  6  2  0
  6  7  1  0
  7  8  1  0
  8  9  1  0
  9 10  2  0
 10 11  1  0
 11 12  2  0
 12 13  1  0
 13 14  2  0
 12 15  1  0
 15 16  1  0
 15 17  1  0
 15 18  1  0
  7 19  2  0
 19 20  1  0
 20 21  2  0
 21 22  1  0
 22 23  2  0
 23  2  1  0
 22  6  1  0
 14  9  1  0
M  END
>  <pIC50>  (71) 
5.59

>  <ChEMBL_ID>  (71) 
CHEMBL413110

>  <document_journal>  (71) 
J. Med. Chem.

>  <bao_endpoint>  (71) 
BAO_0000190

>  <potential_duplicate>  (71) 
False

>  <uo_units>  (71) 
UO_0000065

>  <canonical_smiles>  (71) 
Nc1nc(N)c2c(Sc3ccc(cc3)C(F)(F)F)cccc2n1

>  <parent_molecule_chembl_id>  (71) 
CHEMBL413110

>  <assay_type>  (71) 
B

>  <src_id>  (71) 
1

>  <ligand_efficiency>  (71) 
{u'le': u'0.33', u'bei': u'16.61', u'sei': u'5.42', u'lle': u'1.57'}

>  <standard_flag>  (71) 
True

>  <molecule_chembl_id>  (71) 
CHEMBL413110

>  <target_organism>  (71) 
Homo sapiens

>  <standard_units>  (71) 
nM

>  <record_id>  (71) 
228685

>  <document_chembl_id>  (71) 
CHEMBL1128547

>  <bao_format>  (71) 
BAO_0000357

>  <data_validity_description>  (71) 
None

>  <activity_id>  (71) 
513848

>  <standard_type>  (71) 
IC50

>  <target_chembl_id>  (71) 
CHEMBL202

>  <data_validity_comment>  (71) 
None

>  <published_value>  (71) 
2.6

>  <document_year>  (71) 
1995

>  <target_pref_name>  (71) 
Dihydrofolate reductase

>  <assay_chembl_id>  (71) 
CHEMBL669279

>  <standard_relation>  (71) 
=

>  <assay_description>  (71) 
In vitro inhibition of human dihydrofolate reductase

>  <published_relation>  (71) 
=

>  <standard_value>  (71) 
2600

>  <qudt_units>  (71) 
http://www.openphacts.org/units/Nanomolar

>  <target_tax_id>  (71) 
9606

>  <bao_label>  (71) 
single protein format

>  <published_units>  (71) 
uM

>  <pchembl_value>  (71) 
5.59

>  <published_type>  (71) 
I50

>  <activity_comment>  (71) 
None

$$$$

     RDKit          

 20 22  0  0  0  0  0  0  0  0999 V2000
    0.0000    0.0000    0.0000 N   0  0  0  0  0  0  0  0  0  0  0  0
    0.0000    0.0000    0.0000 C   0  0  0  0  0  0  0  0  0  0  0  0
    0.0000    0.0000    0.0000 N   0  0  0  0  0  0  0  0  0  0  0  0
    0.0000    0.0000    0.0000 C   0  0  0  0  0  0  0  0  0  0  0  0
    0.0000    0.0000    0.0000 N   0  0  0  0  0  0  0  0  0  0  0  0
    0.0000    0.0000    0.0000 C   0  0  0  0  0  0  0  0  0  0  0  0
    0.0000    0.0000    0.0000 C   0  0  0  0  0  0  0  0  0  0  0  0
    0.0000    0.0000    0.0000 S   0  0  0  0  0  0  0  0  0  0  0  0
    0.0000    0.0000    0.0000 C   0  0  0  0  0  0  0  0  0  0  0  0
    0.0000    0.0000    0.0000 C   0  0  0  0  0  0  0  0  0  0  0  0
    0.0000    0.0000    0.0000 C   0  0  0  0  0  0  0  0  0  0  0  0
    0.0000    0.0000    0.0000 C   0  0  0  0  0  0  0  0  0  0  0  0
    0.0000    0.0000    0.0000 C   0  0  0  0  0  0  0  0  0  0  0  0
    0.0000    0.0000    0.0000 Cl  0  0  0  0  0  0  0  0  0  0  0  0
    0.0000    0.0000    0.0000 C   0  0  0  0  0  0  0  0  0  0  0  0
    0.0000    0.0000    0.0000 C   0  0  0  0  0  0  0  0  0  0  0  0
    0.0000    0.0000    0.0000 C   0  0  0  0  0  0  0  0  0  0  0  0
    0.0000    0.0000    0.0000 C   0  0  0  0  0  0  0  0  0  0  0  0
    0.0000    0.0000    0.0000 C   0  0  0  0  0  0  0  0  0  0  0  0
    0.0000    0.0000    0.0000 N   0  0  0  0  0  0  0  0  0  0  0  0
  1  2  1  0
  2  3  2  0
  3  4  1  0
  4  5  1  0
  4  6  2  0
  6  7  1  0
  7  8  1  0
  8  9  1  0
  9 10  2  0
 10 11  1  0
 11 12  2  0
 12 13  1  0
 13 14  1  0
 13 15  2  0
  7 16  2  0
 16 17  1  0
 17 18  2  0
 18 19  1  0
 19 20  2  0
 20  2  1  0
 19  6  1  0
 15  9  1  0
M  END
>  <pIC50>  (72) 
6.57

>  <ChEMBL_ID>  (72) 
CHEMBL338742

>  <document_journal>  (72) 
J. Med. Chem.

>  <bao_endpoint>  (72) 
BAO_0000190

>  <potential_duplicate>  (72) 
False

>  <uo_units>  (72) 
UO_0000065

>  <canonical_smiles>  (72) 
Nc1nc(N)c2c(Sc3cccc(Cl)c3)cccc2n1

>  <parent_molecule_chembl_id>  (72) 
CHEMBL338742

>  <assay_type>  (72) 
B

>  <src_id>  (72) 
1

>  <ligand_efficiency>  (72) 
{u'le': u'0.45', u'bei': u'21.69', u'sei': u'6.37', u'lle': u'2.83'}

>  <standard_flag>  (72) 
True

>  <molecule_chembl_id>  (72) 
CHEMBL338742

>  <target_organism>  (72) 
Homo sapiens

>  <standard_units>  (72) 
nM

>  <record_id>  (72) 
228697

>  <document_chembl_id>  (72) 
CHEMBL1128547

>  <bao_format>  (72) 
BAO_0000357

>  <data_validity_description>  (72) 
None

>  <activity_id>  (72) 
513852

>  <standard_type>  (72) 
IC50

>  <target_chembl_id>  (72) 
CHEMBL202

>  <data_validity_comment>  (72) 
None

>  <published_value>  (72) 
0.27

>  <document_year>  (72) 
1995

>  <target_pref_name>  (72) 
Dihydrofolate reductase

>  <assay_chembl_id>  (72) 
CHEMBL669279

>  <standard_relation>  (72) 
=

>  <assay_description>  (72) 
In vitro inhibition of human dihydrofolate reductase

>  <published_relation>  (72) 
=

>  <standard_value>  (72) 
270

>  <qudt_units>  (72) 
http://www.openphacts.org/units/Nanomolar

>  <target_tax_id>  (72) 
9606

>  <bao_label>  (72) 
single protein format

>  <published_units>  (72) 
uM

>  <pchembl_value>  (72) 
6.57

>  <published_type>  (72) 
I50

>  <activity_comment>  (72) 
None

$$$$

     RDKit          

 20 22  0  0  0  0  0  0  0  0999 V2000
    0.0000    0.0000    0.0000 N   0  0  0  0  0  0  0  0  0  0  0  0
    0.0000    0.0000    0.0000 C   0  0  0  0  0  0  0  0  0  0  0  0
    0.0000    0.0000    0.0000 N   0  0  0  0  0  0  0  0  0  0  0  0
    0.0000    0.0000    0.0000 C   0  0  0  0  0  0  0  0  0  0  0  0
    0.0000    0.0000    0.0000 N   0  0  0  0  0  0  0  0  0  0  0  0
    0.0000    0.0000    0.0000 C   0  0  0  0  0  0  0  0  0  0  0  0
    0.0000    0.0000    0.0000 C   0  0  0  0  0  0  0  0  0  0  0  0
    0.0000    0.0000    0.0000 S   0  0  0  0  0  0  0  0  0  0  0  0
    0.0000    0.0000    0.0000 C   0  0  0  0  0  0  0  0  0  0  0  0
    0.0000    0.0000    0.0000 C   0  0  0  0  0  0  0  0  0  0  0  0
    0.0000    0.0000    0.0000 C   0  0  0  0  0  0  0  0  0  0  0  0
    0.0000    0.0000    0.0000 C   0  0  0  0  0  0  0  0  0  0  0  0
    0.0000    0.0000    0.0000 C   0  0  0  0  0  0  0  0  0  0  0  0
    0.0000    0.0000    0.0000 C   0  0  0  0  0  0  0  0  0  0  0  0
    0.0000    0.0000    0.0000 Cl  0  0  0  0  0  0  0  0  0  0  0  0
    0.0000    0.0000    0.0000 C   0  0  0  0  0  0  0  0  0  0  0  0
    0.0000    0.0000    0.0000 C   0  0  0  0  0  0  0  0  0  0  0  0
    0.0000    0.0000    0.0000 C   0  0  0  0  0  0  0  0  0  0  0  0
    0.0000    0.0000    0.0000 C   0  0  0  0  0  0  0  0  0  0  0  0
    0.0000    0.0000    0.0000 N   0  0  0  0  0  0  0  0  0  0  0  0
  1  2  1  0
  2  3  2  0
  3  4  1  0
  4  5  1  0
  4  6  2  0
  6  7  1  0
  7  8  1  0
  8  9  1  0
  9 10  2  0
 10 11  1  0
 11 12  2  0
 12 13  1  0
 13 14  2  0
 14 15  1  0
  7 16  2  0
 16 17  1  0
 17 18  2  0
 18 19  1  0
 19 20  2  0
 20  2  1  0
 19  6  1  0
 14  9  1  0
M  END
>  <pIC50>  (73) 
7.04

>  <ChEMBL_ID>  (73) 
CHEMBL334307

>  <document_journal>  (73) 
J. Med. Chem.

>  <bao_endpoint>  (73) 
BAO_0000190

>  <potential_duplicate>  (73) 
False

>  <uo_units>  (73) 
UO_0000065

>  <canonical_smiles>  (73) 
Nc1nc(N)c2c(Sc3ccccc3Cl)cccc2n1

>  <parent_molecule_chembl_id>  (73) 
CHEMBL334307

>  <assay_type>  (73) 
B

>  <src_id>  (73) 
1

>  <ligand_efficiency>  (73) 
{u'le': u'0.48', u'bei': u'23.24', u'sei': u'6.82', u'lle': u'3.3'}

>  <standard_flag>  (73) 
True

>  <molecule_chembl_id>  (73) 
CHEMBL334307

>  <target_organism>  (73) 
Homo sapiens

>  <standard_units>  (73) 
nM

>  <record_id>  (73) 
228696

>  <document_chembl_id>  (73) 
CHEMBL1128547

>  <bao_format>  (73) 
BAO_0000357

>  <data_validity_description>  (73) 
None

>  <activity_id>  (73) 
513856

>  <standard_type>  (73) 
IC50

>  <target_chembl_id>  (73) 
CHEMBL202

>  <data_validity_comment>  (73) 
None

>  <published_value>  (73) 
0.092

>  <document_year>  (73) 
1995

>  <target_pref_name>  (73) 
Dihydrofolate reductase

>  <assay_chembl_id>  (73) 
CHEMBL669279

>  <standard_relation>  (73) 
=

>  <assay_description>  (73) 
In vitro inhibition of human dihydrofolate reductase

>  <published_relation>  (73) 
=

>  <standard_value>  (73) 
92

>  <qudt_units>  (73) 
http://www.openphacts.org/units/Nanomolar

>  <target_tax_id>  (73) 
9606

>  <bao_label>  (73) 
single protein format

>  <published_units>  (73) 
uM

>  <pchembl_value>  (73) 
7.04

>  <published_type>  (73) 
I50

>  <activity_comment>  (73) 
None

$$$$

     RDKit          

 17 18  0  0  0  0  0  0  0  0999 V2000
    0.0000    0.0000    0.0000 C   0  0  0  0  0  0  0  0  0  0  0  0
    0.0000    0.0000    0.0000 C   0  0  0  0  0  0  0  0  0  0  0  0
    0.0000    0.0000    0.0000 C   0  0  0  0  0  0  0  0  0  0  0  0
    0.0000    0.0000    0.0000 N   0  0  0  0  0  0  0  0  0  0  0  0
    0.0000    0.0000    0.0000 C   0  0  0  0  0  0  0  0  0  0  0  0
    0.0000    0.0000    0.0000 N   0  0  0  0  0  0  0  0  0  0  0  0
    0.0000    0.0000    0.0000 N   0  0  0  0  0  0  0  0  0  0  0  0
    0.0000    0.0000    0.0000 C   0  0  0  0  0  0  0  0  0  0  0  0
    0.0000    0.0000    0.0000 N   0  0  0  0  0  0  0  0  0  0  0  0
    0.0000    0.0000    0.0000 C   0  0  0  0  0  0  0  0  0  0  0  0
    0.0000    0.0000    0.0000 C   0  0  0  0  0  0  0  0  0  0  0  0
    0.0000    0.0000    0.0000 C   0  0  0  0  0  0  0  0  0  0  0  0
    0.0000    0.0000    0.0000 C   0  0  0  0  0  0  0  0  0  0  0  0
    0.0000    0.0000    0.0000 C   0  0  0  0  0  0  0  0  0  0  0  0
    0.0000    0.0000    0.0000 Cl  0  0  0  0  0  0  0  0  0  0  0  0
    0.0000    0.0000    0.0000 C   0  0  0  0  0  0  0  0  0  0  0  0
    0.0000    0.0000    0.0000 C   0  0  0  0  0  0  0  0  0  0  0  0
  1  2  1  0
  2  3  1  0
  3  4  2  0
  4  5  1  0
  5  6  1  0
  5  7  2  0
  7  8  1  0
  8  9  1  0
  8 10  2  0
 10 11  1  0
 11 12  2  0
 12 13  1  0
 13 14  2  0
 14 15  1  0
 14 16  1  0
 16 17  2  0
 10  3  1  0
 17 11  1  0
M  END
>  <pIC50>  (74) 
5.6075

>  <ChEMBL_ID>  (74) 
CHEMBL36

>  <document_journal>  (74) 
J. Med. Chem.

>  <bao_endpoint>  (74) 
BAO_0000190

>  <potential_duplicate>  (74) 
False

>  <uo_units>  (74) 
UO_0000065

>  <canonical_smiles>  (74) 
CCc1nc(N)nc(N)c1c2ccc(Cl)cc2

>  <parent_molecule_chembl_id>  (74) 
CHEMBL36

>  <assay_type>  (74) 
B

>  <src_id>  (74) 
1

>  <ligand_efficiency>  (74) 
{u'le': u'0.45', u'bei': u'22.46', u'sei': u'7.18', u'lle': u'2.84'}

>  <standard_flag>  (74) 
True

>  <molecule_chembl_id>  (74) 
CHEMBL36

>  <target_organism>  (74) 
Homo sapiens

>  <standard_units>  (74) 
nM

>  <record_id>  (74) 
228693

>  <document_chembl_id>  (74) 
CHEMBL1128547

>  <bao_format>  (74) 
BAO_0000357

>  <data_validity_description>  (74) 
None

>  <activity_id>  (74) 
515175

>  <standard_type>  (74) 
IC50

>  <target_chembl_id>  (74) 
CHEMBL202

>  <data_validity_comment>  (74) 
None

>  <published_value>  (74) 
2.6

>  <document_year>  (74) 
1995

>  <target_pref_name>  (74) 
Dihydrofolate reductase

>  <assay_chembl_id>  (74) 
CHEMBL669279

>  <standard_relation>  (74) 
=

>  <assay_description>  (74) 
In vitro inhibition of human dihydrofolate reductase

>  <published_relation>  (74) 
=

>  <standard_value>  (74) 
2600

>  <qudt_units>  (74) 
http://www.openphacts.org/units/Nanomolar

>  <target_tax_id>  (74) 
9606

>  <bao_label>  (74) 
single protein format

>  <published_units>  (74) 
uM

>  <pchembl_value>  (74) 
5.59

>  <published_type>  (74) 
I50

>  <activity_comment>  (74) 
None

$$$$

     RDKit          

 24 26  0  0  0  0  0  0  0  0999 V2000
    0.0000    0.0000    0.0000 C   0  0  0  0  0  0  0  0  0  0  0  0
    0.0000    0.0000    0.0000 C   0  0  0  0  0  0  0  0  0  0  0  0
    0.0000    0.0000    0.0000 C   0  0  0  0  0  0  0  0  0  0  0  0
    0.0000    0.0000    0.0000 C   0  0  0  0  0  0  0  0  0  0  0  0
    0.0000    0.0000    0.0000 C   0  0  0  0  0  0  0  0  0  0  0  0
    0.0000    0.0000    0.0000 C   0  0  0  0  0  0  0  0  0  0  0  0
    0.0000    0.0000    0.0000 C   0  0  0  0  0  0  0  0  0  0  0  0
    0.0000    0.0000    0.0000 C   0  0  0  0  0  0  0  0  0  0  0  0
    0.0000    0.0000    0.0000 S   0  0  0  0  0  0  0  0  0  0  0  0
    0.0000    0.0000    0.0000 C   0  0  0  0  0  0  0  0  0  0  0  0
    0.0000    0.0000    0.0000 C   0  0  0  0  0  0  0  0  0  0  0  0
    0.0000    0.0000    0.0000 N   0  0  0  0  0  0  0  0  0  0  0  0
    0.0000    0.0000    0.0000 C   0  0  0  0  0  0  0  0  0  0  0  0
    0.0000    0.0000    0.0000 C   0  0  0  0  0  0  0  0  0  0  0  0
    0.0000    0.0000    0.0000 C   0  0  0  0  0  0  0  0  0  0  0  0
    0.0000    0.0000    0.0000 N   0  0  0  0  0  0  0  0  0  0  0  0
    0.0000    0.0000    0.0000 C   0  0  0  0  0  0  0  0  0  0  0  0
    0.0000    0.0000    0.0000 N   0  0  0  0  0  0  0  0  0  0  0  0
    0.0000    0.0000    0.0000 N   0  0  0  0  0  0  0  0  0  0  0  0
    0.0000    0.0000    0.0000 C   0  0  0  0  0  0  0  0  0  0  0  0
    0.0000    0.0000    0.0000 N   0  0  0  0  0  0  0  0  0  0  0  0
    0.0000    0.0000    0.0000 C   0  0  0  0  0  0  0  0  0  0  0  0
    0.0000    0.0000    0.0000 C   0  0  0  0  0  0  0  0  0  0  0  0
    0.0000    0.0000    0.0000 C   0  0  0  0  0  0  0  0  0  0  0  0
  1  2  1  0
  2  3  1  0
  2  4  1  0
  2  5  1  0
  5  6  2  0
  6  7  1  0
  7  8  2  0
  8  9  1  0
  9 10  1  0
 10 11  2  0
 11 12  1  0
 11 13  1  0
 13 14  2  0
 14 15  1  0
 15 16  2  0
 16 17  1  0
 17 18  1  0
 17 19  2  0
 19 20  1  0
 20 21  1  0
 20 22  2  0
  8 23  1  0
 23 24  2  0
 24  5  1  0
 22 10  1  0
 22 15  1  0
M  END
>  <pIC50>  (75) 
5.37

>  <ChEMBL_ID>  (75) 
CHEMBL120588

>  <document_journal>  (75) 
J. Med. Chem.

>  <bao_endpoint>  (75) 
BAO_0000190

>  <potential_duplicate>  (75) 
False

>  <uo_units>  (75) 
UO_0000065

>  <canonical_smiles>  (75) 
CC(C)(C)c1ccc(Sc2c(N)ccc3nc(N)nc(N)c23)cc1

>  <parent_molecule_chembl_id>  (75) 
CHEMBL120588

>  <assay_type>  (75) 
B

>  <src_id>  (75) 
1

>  <ligand_efficiency>  (75) 
{u'le': u'0.31', u'bei': u'15.81', u'sei': u'4.16', u'lle': u'1.64'}

>  <standard_flag>  (75) 
True

>  <molecule_chembl_id>  (75) 
CHEMBL120588

>  <target_organism>  (75) 
Homo sapiens

>  <standard_units>  (75) 
nM

>  <record_id>  (75) 
228695

>  <document_chembl_id>  (75) 
CHEMBL1128547

>  <bao_format>  (75) 
BAO_0000357

>  <data_validity_description>  (75) 
None

>  <activity_id>  (75) 
517650

>  <standard_type>  (75) 
IC50

>  <target_chembl_id>  (75) 
CHEMBL202

>  <data_validity_comment>  (75) 
None

>  <published_value>  (75) 
4.3

>  <document_year>  (75) 
1995

>  <target_pref_name>  (75) 
Dihydrofolate reductase

>  <assay_chembl_id>  (75) 
CHEMBL669279

>  <standard_relation>  (75) 
=

>  <assay_description>  (75) 
In vitro inhibition of human dihydrofolate reductase

>  <published_relation>  (75) 
=

>  <standard_value>  (75) 
4300

>  <qudt_units>  (75) 
http://www.openphacts.org/units/Nanomolar

>  <target_tax_id>  (75) 
9606

>  <bao_label>  (75) 
single protein format

>  <published_units>  (75) 
uM

>  <pchembl_value>  (75) 
5.37

>  <published_type>  (75) 
I50

>  <activity_comment>  (75) 
None

$$$$

     RDKit          

 24 26  0  0  0  0  0  0  0  0999 V2000
    0.0000    0.0000    0.0000 C   0  0  0  0  0  0  0  0  0  0  0  0
    0.0000    0.0000    0.0000 O   0  0  0  0  0  0  0  0  0  0  0  0
    0.0000    0.0000    0.0000 C   0  0  0  0  0  0  0  0  0  0  0  0
    0.0000    0.0000    0.0000 C   0  0  0  0  0  0  0  0  0  0  0  0
    0.0000    0.0000    0.0000 C   0  0  0  0  0  0  0  0  0  0  0  0
    0.0000    0.0000    0.0000 C   0  0  0  0  0  0  0  0  0  0  0  0
    0.0000    0.0000    0.0000 O   0  0  0  0  0  0  0  0  0  0  0  0
    0.0000    0.0000    0.0000 C   0  0  0  0  0  0  0  0  0  0  0  0
    0.0000    0.0000    0.0000 C   0  0  0  0  0  0  0  0  0  0  0  0
    0.0000    0.0000    0.0000 C   0  0  0  0  0  0  0  0  0  0  0  0
    0.0000    0.0000    0.0000 C   0  0  0  0  0  0  0  0  0  0  0  0
    0.0000    0.0000    0.0000 C   0  0  0  0  0  0  0  0  0  0  0  0
    0.0000    0.0000    0.0000 N   0  0  0  0  0  0  0  0  0  0  0  0
    0.0000    0.0000    0.0000 C   0  0  0  0  0  0  0  0  0  0  0  0
    0.0000    0.0000    0.0000 N   0  0  0  0  0  0  0  0  0  0  0  0
    0.0000    0.0000    0.0000 C   0  0  0  0  0  0  0  0  0  0  0  0
    0.0000    0.0000    0.0000 N   0  0  0  0  0  0  0  0  0  0  0  0
    0.0000    0.0000    0.0000 N   0  0  0  0  0  0  0  0  0  0  0  0
    0.0000    0.0000    0.0000 C   0  0  0  0  0  0  0  0  0  0  0  0
    0.0000    0.0000    0.0000 N   0  0  0  0  0  0  0  0  0  0  0  0
    0.0000    0.0000    0.0000 C   0  0  0  0  0  0  0  0  0  0  0  0
    0.0000    0.0000    0.0000 C   0  0  0  0  0  0  0  0  0  0  0  0
    0.0000    0.0000    0.0000 C   0  0  0  0  0  0  0  0  0  0  0  0
    0.0000    0.0000    0.0000 C   0  0  0  0  0  0  0  0  0  0  0  0
  1  2  1  0
  2  3  1  0
  3  4  2  0
  4  5  1  0
  5  6  2  0
  6  7  1  0
  7  8  1  0
  6  9  1  0
  9 10  1  0
 10 11  1  0
 11 12  2  0
 12 13  1  0
 13 14  2  0
 14 15  1  0
 15 16  2  0
 16 17  1  0
 16 18  1  0
 18 19  2  0
 19 20  1  0
 19 21  1  0
 21 22  2  0
 22 23  1  0
  9 24  2  0
 24  3  1  0
 22 11  1  0
 21 14  1  0
M  END
>  <pIC50>  (76) 
8.61

>  <ChEMBL_ID>  (76) 
CHEMBL7492

>  <document_journal>  (76) 
J. Med. Chem.

>  <bao_endpoint>  (76) 
BAO_0000190

>  <potential_duplicate>  (76) 
False

>  <uo_units>  (76) 
UO_0000065

>  <canonical_smiles>  (76) 
COc1ccc(OC)c(Cc2cnc3nc(N)nc(N)c3c2C)c1

>  <parent_molecule_chembl_id>  (76) 
CHEMBL7492

>  <assay_type>  (76) 
B

>  <src_id>  (76) 
1

>  <ligand_efficiency>  (76) 
{u'le': u'0.5', u'bei': u'26.74', u'sei': u'7.97', u'lle': u'6.27'}

>  <standard_flag>  (76) 
True

>  <molecule_chembl_id>  (76) 
CHEMBL7492

>  <target_organism>  (76) 
Homo sapiens

>  <standard_units>  (76) 
nM

>  <record_id>  (76) 
228691

>  <document_chembl_id>  (76) 
CHEMBL1128547

>  <bao_format>  (76) 
BAO_0000357

>  <data_validity_description>  (76) 
None

>  <activity_id>  (76) 
517662

>  <standard_type>  (76) 
IC50

>  <target_chembl_id>  (76) 
CHEMBL202

>  <data_validity_comment>  (76) 
None

>  <published_value>  (76) 
0.002

>  <document_year>  (76) 
1995

>  <target_pref_name>  (76) 
Dihydrofolate reductase

>  <assay_chembl_id>  (76) 
CHEMBL669279

>  <standard_relation>  (76) 
=

>  <assay_description>  (76) 
In vitro inhibition of human dihydrofolate reductase

>  <published_relation>  (76) 
=

>  <standard_value>  (76) 
2

>  <qudt_units>  (76) 
http://www.openphacts.org/units/Nanomolar

>  <target_tax_id>  (76) 
9606

>  <bao_label>  (76) 
single protein format

>  <published_units>  (76) 
uM

>  <pchembl_value>  (76) 
8.7

>  <published_type>  (76) 
I50

>  <activity_comment>  (76) 
None

$$$$

     RDKit          

 26 29  0  0  0  0  0  0  0  0999 V2000
    0.0000    0.0000    0.0000 N   0  0  0  0  0  0  0  0  0  0  0  0
    0.0000    0.0000    0.0000 C   0  0  0  0  0  0  0  0  0  0  0  0
    0.0000    0.0000    0.0000 N   0  0  0  0  0  0  0  0  0  0  0  0
    0.0000    0.0000    0.0000 C   0  0  0  0  0  0  0  0  0  0  0  0
    0.0000    0.0000    0.0000 N   0  0  0  0  0  0  0  0  0  0  0  0
    0.0000    0.0000    0.0000 C   0  0  0  0  0  0  0  0  0  0  0  0
    0.0000    0.0000    0.0000 C   0  0  0  0  0  0  0  0  0  0  0  0
    0.0000    0.0000    0.0000 S   0  0  0  0  0  0  0  0  0  0  0  0
    0.0000    0.0000    0.0000 C   0  0  0  0  0  0  0  0  0  0  0  0
    0.0000    0.0000    0.0000 C   0  0  0  0  0  0  0  0  0  0  0  0
    0.0000    0.0000    0.0000 C   0  0  0  0  0  0  0  0  0  0  0  0
    0.0000    0.0000    0.0000 C   0  0  0  0  0  0  0  0  0  0  0  0
    0.0000    0.0000    0.0000 O   0  0  0  0  0  0  0  0  0  0  0  0
    0.0000    0.0000    0.0000 C   0  0  0  0  0  0  0  0  0  0  0  0
    0.0000    0.0000    0.0000 C   0  0  0  0  0  0  0  0  0  0  0  0
    0.0000    0.0000    0.0000 C   0  0  0  0  0  0  0  0  0  0  0  0
    0.0000    0.0000    0.0000 O   0  0  0  0  0  0  0  0  0  0  0  0
    0.0000    0.0000    0.0000 C   0  0  0  0  0  0  0  0  0  0  0  0
    0.0000    0.0000    0.0000 C   0  0  0  0  0  0  0  0  0  0  0  0
    0.0000    0.0000    0.0000 C   0  0  0  0  0  0  0  0  0  0  0  0
    0.0000    0.0000    0.0000 C   0  0  0  0  0  0  0  0  0  0  0  0
    0.0000    0.0000    0.0000 C   0  0  0  0  0  0  0  0  0  0  0  0
    0.0000    0.0000    0.0000 C   0  0  0  0  0  0  0  0  0  0  0  0
    0.0000    0.0000    0.0000 C   0  0  0  0  0  0  0  0  0  0  0  0
    0.0000    0.0000    0.0000 C   0  0  0  0  0  0  0  0  0  0  0  0
    0.0000    0.0000    0.0000 N   0  0  0  0  0  0  0  0  0  0  0  0
  1  2  1  0
  2  3  2  0
  3  4  1  0
  4  5  1  0
  4  6  2  0
  6  7  1  0
  7  8  1  0
  8  9  1  0
  9 10  2  0
 10 11  1  0
 11 12  2  0
 12 13  1  0
 13 14  1  0
 14 15  1  0
 15 16  1  0
 16 17  1  0
 17 18  1  0
 18 19  1  0
 12 20  1  0
 20 21  2  0
  7 22  2  0
 22 23  1  0
 23 24  2  0
 24 25  1  0
 25 26  2  0
 26  2  1  0
 25  6  1  0
 21  9  1  0
 19 14  1  0
M  END
>  <pIC50>  (77) 
6.7

>  <ChEMBL_ID>  (77) 
CHEMBL121057

>  <document_journal>  (77) 
J. Med. Chem.

>  <bao_endpoint>  (77) 
BAO_0000190

>  <potential_duplicate>  (77) 
False

>  <uo_units>  (77) 
UO_0000065

>  <canonical_smiles>  (77) 
Nc1nc(N)c2c(Sc3ccc(OC4CCOCC4)cc3)cccc2n1

>  <parent_molecule_chembl_id>  (77) 
CHEMBL121057

>  <assay_type>  (77) 
B

>  <src_id>  (77) 
1

>  <ligand_efficiency>  (77) 
{u'le': u'0.35', u'bei': u'18.18', u'sei': u'5.51', u'lle': u'3.8'}

>  <standard_flag>  (77) 
True

>  <molecule_chembl_id>  (77) 
CHEMBL121057

>  <target_organism>  (77) 
Homo sapiens

>  <standard_units>  (77) 
nM

>  <record_id>  (77) 
228681

>  <document_chembl_id>  (77) 
CHEMBL1128547

>  <bao_format>  (77) 
BAO_0000357

>  <data_validity_description>  (77) 
None

>  <activity_id>  (77) 
520237

>  <standard_type>  (77) 
IC50

>  <target_chembl_id>  (77) 
CHEMBL202

>  <data_validity_comment>  (77) 
None

>  <published_value>  (77) 
0.2

>  <document_year>  (77) 
1995

>  <target_pref_name>  (77) 
Dihydrofolate reductase

>  <assay_chembl_id>  (77) 
CHEMBL669279

>  <standard_relation>  (77) 
=

>  <assay_description>  (77) 
In vitro inhibition of human dihydrofolate reductase

>  <published_relation>  (77) 
=

>  <standard_value>  (77) 
200

>  <qudt_units>  (77) 
http://www.openphacts.org/units/Nanomolar

>  <target_tax_id>  (77) 
9606

>  <bao_label>  (77) 
single protein format

>  <published_units>  (77) 
uM

>  <pchembl_value>  (77) 
6.7

>  <published_type>  (77) 
I50

>  <activity_comment>  (77) 
None

$$$$

     RDKit          

 21 23  0  0  0  0  0  0  0  0999 V2000
    0.0000    0.0000    0.0000 C   0  0  0  0  0  0  0  0  0  0  0  0
    0.0000    0.0000    0.0000 O   0  0  0  0  0  0  0  0  0  0  0  0
    0.0000    0.0000    0.0000 C   0  0  0  0  0  0  0  0  0  0  0  0
    0.0000    0.0000    0.0000 C   0  0  0  0  0  0  0  0  0  0  0  0
    0.0000    0.0000    0.0000 C   0  0  0  0  0  0  0  0  0  0  0  0
    0.0000    0.0000    0.0000 C   0  0  0  0  0  0  0  0  0  0  0  0
    0.0000    0.0000    0.0000 S   0  0  0  0  0  0  0  0  0  0  0  0
    0.0000    0.0000    0.0000 C   0  0  0  0  0  0  0  0  0  0  0  0
    0.0000    0.0000    0.0000 C   0  0  0  0  0  0  0  0  0  0  0  0
    0.0000    0.0000    0.0000 C   0  0  0  0  0  0  0  0  0  0  0  0
    0.0000    0.0000    0.0000 C   0  0  0  0  0  0  0  0  0  0  0  0
    0.0000    0.0000    0.0000 C   0  0  0  0  0  0  0  0  0  0  0  0
    0.0000    0.0000    0.0000 N   0  0  0  0  0  0  0  0  0  0  0  0
    0.0000    0.0000    0.0000 C   0  0  0  0  0  0  0  0  0  0  0  0
    0.0000    0.0000    0.0000 N   0  0  0  0  0  0  0  0  0  0  0  0
    0.0000    0.0000    0.0000 N   0  0  0  0  0  0  0  0  0  0  0  0
    0.0000    0.0000    0.0000 C   0  0  0  0  0  0  0  0  0  0  0  0
    0.0000    0.0000    0.0000 N   0  0  0  0  0  0  0  0  0  0  0  0
    0.0000    0.0000    0.0000 C   0  0  0  0  0  0  0  0  0  0  0  0
    0.0000    0.0000    0.0000 C   0  0  0  0  0  0  0  0  0  0  0  0
    0.0000    0.0000    0.0000 C   0  0  0  0  0  0  0  0  0  0  0  0
  1  2  1  0
  2  3  1  0
  3  4  2  0
  4  5  1  0
  5  6  2  0
  6  7  1  0
  7  8  1  0
  8  9  2  0
  9 10  1  0
 10 11  2  0
 11 12  1  0
 12 13  2  0
 13 14  1  0
 14 15  1  0
 14 16  2  0
 16 17  1  0
 17 18  1  0
 17 19  2  0
  6 20  1  0
 20 21  2  0
 21  3  1  0
 19  8  1  0
 19 12  1  0
M  END
>  <pIC50>  (78) 
5.46

>  <ChEMBL_ID>  (78) 
CHEMBL330868

>  <document_journal>  (78) 
J. Med. Chem.

>  <bao_endpoint>  (78) 
BAO_0000190

>  <potential_duplicate>  (78) 
False

>  <uo_units>  (78) 
UO_0000065

>  <canonical_smiles>  (78) 
COc1ccc(Sc2cccc3nc(N)nc(N)c23)cc1

>  <parent_molecule_chembl_id>  (78) 
CHEMBL330868

>  <assay_type>  (78) 
B

>  <src_id>  (78) 
1

>  <ligand_efficiency>  (78) 
{u'le': u'0.35', u'bei': u'18.29', u'sei': u'4.86', u'lle': u'2.4'}

>  <standard_flag>  (78) 
True

>  <molecule_chembl_id>  (78) 
CHEMBL330868

>  <target_organism>  (78) 
Homo sapiens

>  <standard_units>  (78) 
nM

>  <record_id>  (78) 
228702

>  <document_chembl_id>  (78) 
CHEMBL1128547

>  <bao_format>  (78) 
BAO_0000357

>  <data_validity_description>  (78) 
None

>  <activity_id>  (78) 
520241

>  <standard_type>  (78) 
IC50

>  <target_chembl_id>  (78) 
CHEMBL202

>  <data_validity_comment>  (78) 
None

>  <published_value>  (78) 
3.5

>  <document_year>  (78) 
1995

>  <target_pref_name>  (78) 
Dihydrofolate reductase

>  <assay_chembl_id>  (78) 
CHEMBL669279

>  <standard_relation>  (78) 
=

>  <assay_description>  (78) 
In vitro inhibition of human dihydrofolate reductase

>  <published_relation>  (78) 
=

>  <standard_value>  (78) 
3500

>  <qudt_units>  (78) 
http://www.openphacts.org/units/Nanomolar

>  <target_tax_id>  (78) 
9606

>  <bao_label>  (78) 
single protein format

>  <published_units>  (78) 
uM

>  <pchembl_value>  (78) 
5.46

>  <published_type>  (78) 
I50

>  <activity_comment>  (78) 
None

$$$$

     RDKit          

 28 30  0  0  0  0  0  0  0  0999 V2000
    0.0000    0.0000    0.0000 C   0  0  0  0  0  0  0  0  0  0  0  0
    0.0000    0.0000    0.0000 C   0  0  0  0  0  0  0  0  0  0  0  0
    0.0000    0.0000    0.0000 C   0  0  0  0  0  0  0  0  0  0  0  0
    0.0000    0.0000    0.0000 C   0  0  0  0  0  0  0  0  0  0  0  0
    0.0000    0.0000    0.0000 O   0  0  0  0  0  0  0  0  0  0  0  0
    0.0000    0.0000    0.0000 C   0  0  0  0  0  0  0  0  0  0  0  0
    0.0000    0.0000    0.0000 C   0  0  0  0  0  0  0  0  0  0  0  0
    0.0000    0.0000    0.0000 C   0  0  0  0  0  0  0  0  0  0  0  0
    0.0000    0.0000    0.0000 C   0  0  0  0  0  0  0  0  0  0  0  0
    0.0000    0.0000    0.0000 N   0  0  0  0  0  0  0  0  0  0  0  0
    0.0000    0.0000    0.0000 C   0  0  0  0  0  0  0  0  0  0  0  0
    0.0000    0.0000    0.0000 N   0  0  0  0  0  0  0  0  0  0  0  0
    0.0000    0.0000    0.0000 N   0  0  0  0  0  0  0  0  0  0  0  0
    0.0000    0.0000    0.0000 C   0  0  0  0  0  0  0  0  0  0  0  0
    0.0000    0.0000    0.0000 N   0  0  0  0  0  0  0  0  0  0  0  0
    0.0000    0.0000    0.0000 C   0  0  0  0  0  0  0  0  0  0  0  0
    0.0000    0.0000    0.0000 C   0  0  0  0  0  0  0  0  0  0  0  0
    0.0000    0.0000    0.0000 S   0  0  0  0  0  0  0  0  0  0  0  0
    0.0000    0.0000    0.0000 C   0  0  0  0  0  0  0  0  0  0  0  0
    0.0000    0.0000    0.0000 C   0  0  0  0  0  0  0  0  0  0  0  0
    0.0000    0.0000    0.0000 C   0  0  0  0  0  0  0  0  0  0  0  0
    0.0000    0.0000    0.0000 C   0  0  0  0  0  0  0  0  0  0  0  0
    0.0000    0.0000    0.0000 C   0  0  0  0  0  0  0  0  0  0  0  0
    0.0000    0.0000    0.0000 C   0  0  0  0  0  0  0  0  0  0  0  0
    0.0000    0.0000    0.0000 C   0  0  0  0  0  0  0  0  0  0  0  0
    0.0000    0.0000    0.0000 C   0  0  0  0  0  0  0  0  0  0  0  0
    0.0000    0.0000    0.0000 C   0  0  0  0  0  0  0  0  0  0  0  0
    0.0000    0.0000    0.0000 C   0  0  0  0  0  0  0  0  0  0  0  0
  1  2  1  0
  2  3  1  0
  2  4  1  0
  4  5  1  0
  5  6  1  0
  6  7  2  0
  7  8  1  0
  8  9  2  0
  9 10  1  0
 10 11  2  0
 11 12  1  0
 11 13  1  0
 13 14  2  0
 14 15  1  0
 14 16  1  0
 16 17  2  0
 17 18  1  0
 18 19  1  0
 19 20  2  0
 20 21  1  0
 21 22  2  0
 22 23  1  0
 23 24  2  0
 22 25  1  0
 25 26  1  0
 25 27  1  0
 25 28  1  0
 17  6  1  0
 16  9  1  0
 24 19  1  0
M  END
>  <pIC50>  (79) 
7.52

>  <ChEMBL_ID>  (79) 
CHEMBL121669

>  <document_journal>  (79) 
J. Med. Chem.

>  <bao_endpoint>  (79) 
BAO_0000190

>  <potential_duplicate>  (79) 
False

>  <uo_units>  (79) 
UO_0000065

>  <canonical_smiles>  (79) 
CC(C)COc1ccc2nc(N)nc(N)c2c1Sc3ccc(cc3)C(C)(C)C

>  <parent_molecule_chembl_id>  (79) 
CHEMBL121669

>  <assay_type>  (79) 
B

>  <src_id>  (79) 
1

>  <ligand_efficiency>  (79) 
{u'le': u'0.37', u'bei': u'18.97', u'sei': u'6.7', u'lle': u'1.87'}

>  <standard_flag>  (79) 
True

>  <molecule_chembl_id>  (79) 
CHEMBL121669

>  <target_organism>  (79) 
Homo sapiens

>  <standard_units>  (79) 
nM

>  <record_id>  (79) 
228704

>  <document_chembl_id>  (79) 
CHEMBL1128547

>  <bao_format>  (79) 
BAO_0000357

>  <data_validity_description>  (79) 
None

>  <activity_id>  (79) 
521592

>  <standard_type>  (79) 
IC50

>  <target_chembl_id>  (79) 
CHEMBL202

>  <data_validity_comment>  (79) 
None

>  <published_value>  (79) 
0.03

>  <document_year>  (79) 
1995

>  <target_pref_name>  (79) 
Dihydrofolate reductase

>  <assay_chembl_id>  (79) 
CHEMBL669279

>  <standard_relation>  (79) 
=

>  <assay_description>  (79) 
In vitro inhibition of human dihydrofolate reductase

>  <published_relation>  (79) 
=

>  <standard_value>  (79) 
30

>  <qudt_units>  (79) 
http://www.openphacts.org/units/Nanomolar

>  <target_tax_id>  (79) 
9606

>  <bao_label>  (79) 
single protein format

>  <published_units>  (79) 
uM

>  <pchembl_value>  (79) 
7.52

>  <published_type>  (79) 
I50

>  <activity_comment>  (79) 
None

$$$$

     RDKit          

 24 26  0  0  0  0  0  0  0  0999 V2000
    0.0000    0.0000    0.0000 C   0  0  0  0  0  0  0  0  0  0  0  0
    0.0000    0.0000    0.0000 C   0  0  0  0  0  0  0  0  0  0  0  0
    0.0000    0.0000    0.0000 N   0  0  0  0  0  0  0  0  0  0  0  0
    0.0000    0.0000    0.0000 C   0  0  0  0  0  0  0  0  0  0  0  0
    0.0000    0.0000    0.0000 C   0  0  0  0  0  0  0  0  0  0  0  0
    0.0000    0.0000    0.0000 C   0  0  0  0  0  0  0  0  0  0  0  0
    0.0000    0.0000    0.0000 C   0  0  0  0  0  0  0  0  0  0  0  0
    0.0000    0.0000    0.0000 C   0  0  0  0  0  0  0  0  0  0  0  0
    0.0000    0.0000    0.0000 C   0  0  0  0  0  0  0  0  0  0  0  0
    0.0000    0.0000    0.0000 S   0  0  0  0  0  0  0  0  0  0  0  0
    0.0000    0.0000    0.0000 C   0  0  0  0  0  0  0  0  0  0  0  0
    0.0000    0.0000    0.0000 C   0  0  0  0  0  0  0  0  0  0  0  0
    0.0000    0.0000    0.0000 C   0  0  0  0  0  0  0  0  0  0  0  0
    0.0000    0.0000    0.0000 C   0  0  0  0  0  0  0  0  0  0  0  0
    0.0000    0.0000    0.0000 C   0  0  0  0  0  0  0  0  0  0  0  0
    0.0000    0.0000    0.0000 N   0  0  0  0  0  0  0  0  0  0  0  0
    0.0000    0.0000    0.0000 C   0  0  0  0  0  0  0  0  0  0  0  0
    0.0000    0.0000    0.0000 N   0  0  0  0  0  0  0  0  0  0  0  0
    0.0000    0.0000    0.0000 N   0  0  0  0  0  0  0  0  0  0  0  0
    0.0000    0.0000    0.0000 C   0  0  0  0  0  0  0  0  0  0  0  0
    0.0000    0.0000    0.0000 N   0  0  0  0  0  0  0  0  0  0  0  0
    0.0000    0.0000    0.0000 C   0  0  0  0  0  0  0  0  0  0  0  0
    0.0000    0.0000    0.0000 C   0  0  0  0  0  0  0  0  0  0  0  0
    0.0000    0.0000    0.0000 C   0  0  0  0  0  0  0  0  0  0  0  0
  1  2  1  0
  2  3  1  0
  3  4  1  0
  4  5  1  0
  3  6  1  0
  6  7  2  0
  7  8  1  0
  8  9  2  0
  9 10  1  0
 10 11  1  0
 11 12  2  0
 12 13  1  0
 13 14  2  0
 14 15  1  0
 15 16  2  0
 16 17  1  0
 17 18  1  0
 17 19  2  0
 19 20  1  0
 20 21  1  0
 20 22  2  0
  9 23  1  0
 23 24  2  0
 24  6  1  0
 22 11  1  0
 22 15  1  0
M  END
>  <pIC50>  (80) 
5.37

>  <ChEMBL_ID>  (80) 
CHEMBL333976

>  <document_journal>  (80) 
J. Med. Chem.

>  <bao_endpoint>  (80) 
BAO_0000190

>  <potential_duplicate>  (80) 
False

>  <uo_units>  (80) 
UO_0000065

>  <canonical_smiles>  (80) 
CCN(CC)c1ccc(Sc2cccc3nc(N)nc(N)c23)cc1

>  <parent_molecule_chembl_id>  (80) 
CHEMBL333976

>  <assay_type>  (80) 
B

>  <src_id>  (80) 
1

>  <ligand_efficiency>  (80) 
{u'le': u'0.31', u'bei': u'15.81', u'sei': u'5.05', u'lle': u'1.44'}

>  <standard_flag>  (80) 
True

>  <molecule_chembl_id>  (80) 
CHEMBL333976

>  <target_organism>  (80) 
Homo sapiens

>  <standard_units>  (80) 
nM

>  <record_id>  (80) 
228690

>  <document_chembl_id>  (80) 
CHEMBL1128547

>  <bao_format>  (80) 
BAO_0000357

>  <data_validity_description>  (80) 
None

>  <activity_id>  (80) 
522907

>  <standard_type>  (80) 
IC50

>  <target_chembl_id>  (80) 
CHEMBL202

>  <data_validity_comment>  (80) 
None

>  <published_value>  (80) 
4.3

>  <document_year>  (80) 
1995

>  <target_pref_name>  (80) 
Dihydrofolate reductase

>  <assay_chembl_id>  (80) 
CHEMBL669279

>  <standard_relation>  (80) 
=

>  <assay_description>  (80) 
In vitro inhibition of human dihydrofolate reductase

>  <published_relation>  (80) 
=

>  <standard_value>  (80) 
4300

>  <qudt_units>  (80) 
http://www.openphacts.org/units/Nanomolar

>  <target_tax_id>  (80) 
9606

>  <bao_label>  (80) 
single protein format

>  <published_units>  (80) 
uM

>  <pchembl_value>  (80) 
5.37

>  <published_type>  (80) 
I50

>  <activity_comment>  (80) 
None

$$$$

     RDKit          

 21 23  0  0  0  0  0  0  0  0999 V2000
    0.0000    0.0000    0.0000 N   0  0  0  0  0  0  0  0  0  0  0  0
    0.0000    0.0000    0.0000 C   0  0  0  0  0  0  0  0  0  0  0  0
    0.0000    0.0000    0.0000 N   0  0  0  0  0  0  0  0  0  0  0  0
    0.0000    0.0000    0.0000 C   0  0  0  0  0  0  0  0  0  0  0  0
    0.0000    0.0000    0.0000 N   0  0  0  0  0  0  0  0  0  0  0  0
    0.0000    0.0000    0.0000 C   0  0  0  0  0  0  0  0  0  0  0  0
    0.0000    0.0000    0.0000 C   0  0  0  0  0  0  0  0  0  0  0  0
    0.0000    0.0000    0.0000 S   0  0  0  0  0  0  0  0  0  0  0  0
    0.0000    0.0000    0.0000 C   0  0  0  0  0  0  0  0  0  0  0  0
    0.0000    0.0000    0.0000 C   0  0  0  0  0  0  0  0  0  0  0  0
    0.0000    0.0000    0.0000 C   0  0  0  0  0  0  0  0  0  0  0  0
    0.0000    0.0000    0.0000 C   0  0  0  0  0  0  0  0  0  0  0  0
    0.0000    0.0000    0.0000 C   0  0  0  0  0  0  0  0  0  0  0  0
    0.0000    0.0000    0.0000 C   0  0  0  0  0  0  0  0  0  0  0  0
    0.0000    0.0000    0.0000 C   0  0  0  0  0  0  0  0  0  0  0  0
    0.0000    0.0000    0.0000 N   0  0  0  0  0  0  0  0  0  0  0  0
    0.0000    0.0000    0.0000 C   0  0  0  0  0  0  0  0  0  0  0  0
    0.0000    0.0000    0.0000 C   0  0  0  0  0  0  0  0  0  0  0  0
    0.0000    0.0000    0.0000 C   0  0  0  0  0  0  0  0  0  0  0  0
    0.0000    0.0000    0.0000 C   0  0  0  0  0  0  0  0  0  0  0  0
    0.0000    0.0000    0.0000 N   0  0  0  0  0  0  0  0  0  0  0  0
  1  2  1  0
  2  3  2  0
  3  4  1  0
  4  5  1  0
  4  6  2  0
  6  7  1  0
  7  8  1  0
  8  9  1  0
  9 10  2  0
 10 11  1  0
 11 12  2  0
 12 13  1  0
 13 14  2  0
 12 15  1  0
 15 16  3  0
  7 17  2  0
 17 18  1  0
 18 19  2  0
 19 20  1  0
 20 21  2  0
 21  2  1  0
 20  6  1  0
 14  9  1  0
M  END
>  <pIC50>  (81) 
4.48

>  <ChEMBL_ID>  (81) 
CHEMBL120783

>  <document_journal>  (81) 
J. Med. Chem.

>  <bao_endpoint>  (81) 
BAO_0000190

>  <potential_duplicate>  (81) 
False

>  <uo_units>  (81) 
UO_0000065

>  <canonical_smiles>  (81) 
Nc1nc(N)c2c(Sc3ccc(cc3)C#N)cccc2n1

>  <parent_molecule_chembl_id>  (81) 
CHEMBL120783

>  <assay_type>  (81) 
B

>  <src_id>  (81) 
1

>  <ligand_efficiency>  (81) 
{u'le': u'0.29', u'bei': u'15.28', u'sei': u'3.53', u'lle': u'1.53'}

>  <standard_flag>  (81) 
True

>  <molecule_chembl_id>  (81) 
CHEMBL120783

>  <target_organism>  (81) 
Homo sapiens

>  <standard_units>  (81) 
nM

>  <record_id>  (81) 
228683

>  <document_chembl_id>  (81) 
CHEMBL1128547

>  <bao_format>  (81) 
BAO_0000357

>  <data_validity_description>  (81) 
None

>  <activity_id>  (81) 
525463

>  <standard_type>  (81) 
IC50

>  <target_chembl_id>  (81) 
CHEMBL202

>  <data_validity_comment>  (81) 
None

>  <published_value>  (81) 
33

>  <document_year>  (81) 
1995

>  <target_pref_name>  (81) 
Dihydrofolate reductase

>  <assay_chembl_id>  (81) 
CHEMBL669279

>  <standard_relation>  (81) 
=

>  <assay_description>  (81) 
In vitro inhibition of human dihydrofolate reductase

>  <published_relation>  (81) 
=

>  <standard_value>  (81) 
33000

>  <qudt_units>  (81) 
http://www.openphacts.org/units/Nanomolar

>  <target_tax_id>  (81) 
9606

>  <bao_label>  (81) 
single protein format

>  <published_units>  (81) 
uM

>  <pchembl_value>  (81) 
4.48

>  <published_type>  (81) 
I50

>  <activity_comment>  (81) 
None

$$$$

     RDKit          

 21 23  0  0  0  0  0  0  0  0999 V2000
    0.0000    0.0000    0.0000 C   0  0  0  0  0  0  0  0  0  0  0  0
    0.0000    0.0000    0.0000 O   0  0  0  0  0  0  0  0  0  0  0  0
    0.0000    0.0000    0.0000 C   0  0  0  0  0  0  0  0  0  0  0  0
    0.0000    0.0000    0.0000 C   0  0  0  0  0  0  0  0  0  0  0  0
    0.0000    0.0000    0.0000 C   0  0  0  0  0  0  0  0  0  0  0  0
    0.0000    0.0000    0.0000 C   0  0  0  0  0  0  0  0  0  0  0  0
    0.0000    0.0000    0.0000 C   0  0  0  0  0  0  0  0  0  0  0  0
    0.0000    0.0000    0.0000 S   0  0  0  0  0  0  0  0  0  0  0  0
    0.0000    0.0000    0.0000 C   0  0  0  0  0  0  0  0  0  0  0  0
    0.0000    0.0000    0.0000 C   0  0  0  0  0  0  0  0  0  0  0  0
    0.0000    0.0000    0.0000 C   0  0  0  0  0  0  0  0  0  0  0  0
    0.0000    0.0000    0.0000 C   0  0  0  0  0  0  0  0  0  0  0  0
    0.0000    0.0000    0.0000 C   0  0  0  0  0  0  0  0  0  0  0  0
    0.0000    0.0000    0.0000 N   0  0  0  0  0  0  0  0  0  0  0  0
    0.0000    0.0000    0.0000 C   0  0  0  0  0  0  0  0  0  0  0  0
    0.0000    0.0000    0.0000 N   0  0  0  0  0  0  0  0  0  0  0  0
    0.0000    0.0000    0.0000 N   0  0  0  0  0  0  0  0  0  0  0  0
    0.0000    0.0000    0.0000 C   0  0  0  0  0  0  0  0  0  0  0  0
    0.0000    0.0000    0.0000 N   0  0  0  0  0  0  0  0  0  0  0  0
    0.0000    0.0000    0.0000 C   0  0  0  0  0  0  0  0  0  0  0  0
    0.0000    0.0000    0.0000 C   0  0  0  0  0  0  0  0  0  0  0  0
  1  2  1  0
  2  3  1  0
  3  4  2  0
  4  5  1  0
  5  6  2  0
  6  7  1  0
  7  8  1  0
  8  9  1  0
  9 10  2  0
 10 11  1  0
 11 12  2  0
 12 13  1  0
 13 14  2  0
 14 15  1  0
 15 16  1  0
 15 17  2  0
 17 18  1  0
 18 19  1  0
 18 20  2  0
  7 21  2  0
 21  3  1  0
 20  9  1  0
 20 13  1  0
M  END
>  <pIC50>  (82) 
5.89

>  <ChEMBL_ID>  (82) 
CHEMBL118490

>  <document_journal>  (82) 
J. Med. Chem.

>  <bao_endpoint>  (82) 
BAO_0000190

>  <potential_duplicate>  (82) 
False

>  <uo_units>  (82) 
UO_0000065

>  <canonical_smiles>  (82) 
COc1cccc(Sc2cccc3nc(N)nc(N)c23)c1

>  <parent_molecule_chembl_id>  (82) 
CHEMBL118490

>  <assay_type>  (82) 
B

>  <src_id>  (82) 
1

>  <ligand_efficiency>  (82) 
{u'le': u'0.38', u'bei': u'19.73', u'sei': u'5.24', u'lle': u'2.83'}

>  <standard_flag>  (82) 
True

>  <molecule_chembl_id>  (82) 
CHEMBL118490

>  <target_organism>  (82) 
Homo sapiens

>  <standard_units>  (82) 
nM

>  <record_id>  (82) 
228699

>  <document_chembl_id>  (82) 
CHEMBL1128547

>  <bao_format>  (82) 
BAO_0000357

>  <data_validity_description>  (82) 
None

>  <activity_id>  (82) 
525467

>  <standard_type>  (82) 
IC50

>  <target_chembl_id>  (82) 
CHEMBL202

>  <data_validity_comment>  (82) 
None

>  <published_value>  (82) 
1.3

>  <document_year>  (82) 
1995

>  <target_pref_name>  (82) 
Dihydrofolate reductase

>  <assay_chembl_id>  (82) 
CHEMBL669279

>  <standard_relation>  (82) 
=

>  <assay_description>  (82) 
In vitro inhibition of human dihydrofolate reductase

>  <published_relation>  (82) 
=

>  <standard_value>  (82) 
1300

>  <qudt_units>  (82) 
http://www.openphacts.org/units/Nanomolar

>  <target_tax_id>  (82) 
9606

>  <bao_label>  (82) 
single protein format

>  <published_units>  (82) 
uM

>  <pchembl_value>  (82) 
5.89

>  <published_type>  (82) 
I50

>  <activity_comment>  (82) 
None

$$$$

     RDKit          

 33 35  0  0  0  0  0  0  0  0999 V2000
    0.0000    0.0000    0.0000 C   0  0  0  0  0  0  0  0  0  0  0  0
    0.0000    0.0000    0.0000 C   0  0  0  0  0  0  0  0  0  0  0  0
    0.0000    0.0000    0.0000 C   0  0  0  0  0  0  0  0  0  0  0  0
    0.0000    0.0000    0.0000 C   0  0  0  0  0  0  0  0  0  0  0  0
    0.0000    0.0000    0.0000 C   0  0  0  0  0  0  0  0  0  0  0  0
    0.0000    0.0000    0.0000 C   0  0  0  0  0  0  0  0  0  0  0  0
    0.0000    0.0000    0.0000 C   0  0  0  0  0  0  0  0  0  0  0  0
    0.0000    0.0000    0.0000 C   0  0  0  0  0  0  0  0  0  0  0  0
    0.0000    0.0000    0.0000 C   0  0  0  0  0  0  0  0  0  0  0  0
    0.0000    0.0000    0.0000 C   0  0  0  0  0  0  0  0  0  0  0  0
    0.0000    0.0000    0.0000 O   0  0  0  0  0  0  0  0  0  0  0  0
    0.0000    0.0000    0.0000 N   0  0  0  0  0  0  0  0  0  0  0  0
    0.0000    0.0000    0.0000 C   0  0  0  0  0  0  0  0  0  0  0  0
    0.0000    0.0000    0.0000 C   0  0  0  0  0  0  0  0  0  0  0  0
    0.0000    0.0000    0.0000 C   0  0  0  0  0  0  0  0  0  0  0  0
    0.0000    0.0000    0.0000 C   0  0  0  0  0  0  0  0  0  0  0  0
    0.0000    0.0000    0.0000 O   0  0  0  0  0  0  0  0  0  0  0  0
    0.0000    0.0000    0.0000 O   0  0  0  0  0  0  0  0  0  0  0  0
    0.0000    0.0000    0.0000 C   0  0  0  0  0  0  0  0  0  0  0  0
    0.0000    0.0000    0.0000 O   0  0  0  0  0  0  0  0  0  0  0  0
    0.0000    0.0000    0.0000 O   0  0  0  0  0  0  0  0  0  0  0  0
    0.0000    0.0000    0.0000 C   0  0  0  0  0  0  0  0  0  0  0  0
    0.0000    0.0000    0.0000 C   0  0  0  0  0  0  0  0  0  0  0  0
    0.0000    0.0000    0.0000 N   0  0  0  0  0  0  0  0  0  0  0  0
    0.0000    0.0000    0.0000 C   0  0  0  0  0  0  0  0  0  0  0  0
    0.0000    0.0000    0.0000 N   0  0  0  0  0  0  0  0  0  0  0  0
    0.0000    0.0000    0.0000 C   0  0  0  0  0  0  0  0  0  0  0  0
    0.0000    0.0000    0.0000 N   0  0  0  0  0  0  0  0  0  0  0  0
    0.0000    0.0000    0.0000 N   0  0  0  0  0  0  0  0  0  0  0  0
    0.0000    0.0000    0.0000 C   0  0  0  0  0  0  0  0  0  0  0  0
    0.0000    0.0000    0.0000 N   0  0  0  0  0  0  0  0  0  0  0  0
    0.0000    0.0000    0.0000 C   0  0  0  0  0  0  0  0  0  0  0  0
    0.0000    0.0000    0.0000 N   0  0  0  0  0  0  0  0  0  0  0  0
  1  2  1  0
  2  3  1  0
  3  4  1  0
  4  5  2  0
  5  6  1  0
  6  7  2  0
  7  8  1  0
  8  9  2  0
  7 10  1  0
 10 11  2  0
 10 12  1  0
 12 13  1  0
 13 14  1  0
 14 15  1  0
 15 16  1  0
 16 17  2  0
 16 18  1  0
 13 19  1  0
 19 20  2  0
 19 21  1  0
  2 22  1  0
 22 23  2  0
 23 24  1  0
 24 25  2  0
 25 26  1  0
 26 27  2  0
 27 28  1  0
 27 29  1  0
 29 30  2  0
 30 31  1  0
 30 32  1  0
 32 33  2  0
  9  4  1  0
 33 22  1  0
 32 25  1  0
M  END
>  <pIC50>  (83) 
7.4

>  <ChEMBL_ID>  (83) 
CHEMBL431359

>  <document_journal>  (83) 
J. Med. Chem.

>  <bao_endpoint>  (83) 
BAO_0000190

>  <potential_duplicate>  (83) 
False

>  <uo_units>  (83) 
UO_0000065

>  <canonical_smiles>  (83) 
CC(Cc1ccc(cc1)C(=O)NC(CCC(=O)O)C(=O)O)c2cnc3nc(N)nc(N)c3n2

>  <parent_molecule_chembl_id>  (83) 
CHEMBL431359

>  <assay_type>  (83) 
B

>  <src_id>  (83) 
1

>  <ligand_efficiency>  (83) 
{u'le': u'0.31', u'bei': u'16.31', u'sei': u'3.57', u'lle': u'6.35'}

>  <standard_flag>  (83) 
True

>  <molecule_chembl_id>  (83) 
CHEMBL431359

>  <target_organism>  (83) 
Homo sapiens

>  <standard_units>  (83) 
nM

>  <record_id>  (83) 
119120

>  <document_chembl_id>  (83) 
CHEMBL1124936

>  <bao_format>  (83) 
BAO_0000019

>  <data_validity_description>  (83) 
None

>  <activity_id>  (83) 
525903

>  <standard_type>  (83) 
IC50

>  <target_chembl_id>  (83) 
CHEMBL202

>  <data_validity_comment>  (83) 
None

>  <published_value>  (83) 
0.04

>  <document_year>  (83) 
1990

>  <target_pref_name>  (83) 
Dihydrofolate reductase

>  <assay_chembl_id>  (83) 
CHEMBL668275

>  <standard_relation>  (83) 
=

>  <assay_description>  (83) 
Inhibitory activity towards dihydrofolate reductase derived from human manca leukemia cells

>  <published_relation>  (83) 
=

>  <standard_value>  (83) 
40

>  <qudt_units>  (83) 
http://www.openphacts.org/units/Nanomolar

>  <target_tax_id>  (83) 
9606

>  <bao_label>  (83) 
assay format

>  <published_units>  (83) 
uM

>  <pchembl_value>  (83) 
7.4

>  <published_type>  (83) 
IC50

>  <activity_comment>  (83) 
None

$$$$

     RDKit          

 20 22  0  0  0  0  0  0  0  0999 V2000
    0.0000    0.0000    0.0000 N   0  0  0  0  0  0  0  0  0  0  0  0
    0.0000    0.0000    0.0000 C   0  0  0  0  0  0  0  0  0  0  0  0
    0.0000    0.0000    0.0000 N   0  0  0  0  0  0  0  0  0  0  0  0
    0.0000    0.0000    0.0000 C   0  0  0  0  0  0  0  0  0  0  0  0
    0.0000    0.0000    0.0000 N   0  0  0  0  0  0  0  0  0  0  0  0
    0.0000    0.0000    0.0000 C   0  0  0  0  0  0  0  0  0  0  0  0
    0.0000    0.0000    0.0000 C   0  0  0  0  0  0  0  0  0  0  0  0
    0.0000    0.0000    0.0000 S   0  0  0  0  0  0  0  0  0  0  0  0
    0.0000    0.0000    0.0000 C   0  0  0  0  0  0  0  0  0  0  0  0
    0.0000    0.0000    0.0000 C   0  0  0  0  0  0  0  0  0  0  0  0
    0.0000    0.0000    0.0000 C   0  0  0  0  0  0  0  0  0  0  0  0
    0.0000    0.0000    0.0000 C   0  0  0  0  0  0  0  0  0  0  0  0
    0.0000    0.0000    0.0000 Br  0  0  0  0  0  0  0  0  0  0  0  0
    0.0000    0.0000    0.0000 C   0  0  0  0  0  0  0  0  0  0  0  0
    0.0000    0.0000    0.0000 C   0  0  0  0  0  0  0  0  0  0  0  0
    0.0000    0.0000    0.0000 C   0  0  0  0  0  0  0  0  0  0  0  0
    0.0000    0.0000    0.0000 C   0  0  0  0  0  0  0  0  0  0  0  0
    0.0000    0.0000    0.0000 C   0  0  0  0  0  0  0  0  0  0  0  0
    0.0000    0.0000    0.0000 C   0  0  0  0  0  0  0  0  0  0  0  0
    0.0000    0.0000    0.0000 N   0  0  0  0  0  0  0  0  0  0  0  0
  1  2  1  0
  2  3  2  0
  3  4  1  0
  4  5  1  0
  4  6  2  0
  6  7  1  0
  7  8  1  0
  8  9  1  0
  9 10  2  0
 10 11  1  0
 11 12  2  0
 12 13  1  0
 12 14  1  0
 14 15  2  0
  7 16  2  0
 16 17  1  0
 17 18  2  0
 18 19  1  0
 19 20  2  0
 20  2  1  0
 19  6  1  0
 15  9  1  0
M  END
>  <pIC50>  (84) 
5.51

>  <ChEMBL_ID>  (84) 
CHEMBL118316

>  <document_journal>  (84) 
J. Med. Chem.

>  <bao_endpoint>  (84) 
BAO_0000190

>  <potential_duplicate>  (84) 
False

>  <uo_units>  (84) 
UO_0000065

>  <canonical_smiles>  (84) 
Nc1nc(N)c2c(Sc3ccc(Br)cc3)cccc2n1

>  <parent_molecule_chembl_id>  (84) 
CHEMBL118316

>  <assay_type>  (84) 
B

>  <src_id>  (84) 
1

>  <ligand_efficiency>  (84) 
{u'le': u'0.38', u'bei': u'15.86', u'sei': u'5.34', u'lle': u'1.69'}

>  <standard_flag>  (84) 
True

>  <molecule_chembl_id>  (84) 
CHEMBL118316

>  <target_organism>  (84) 
Homo sapiens

>  <standard_units>  (84) 
nM

>  <record_id>  (84) 
228687

>  <document_chembl_id>  (84) 
CHEMBL1128547

>  <bao_format>  (84) 
BAO_0000357

>  <data_validity_description>  (84) 
None

>  <activity_id>  (84) 
532260

>  <standard_type>  (84) 
IC50

>  <target_chembl_id>  (84) 
CHEMBL202

>  <data_validity_comment>  (84) 
None

>  <published_value>  (84) 
3.1

>  <document_year>  (84) 
1995

>  <target_pref_name>  (84) 
Dihydrofolate reductase

>  <assay_chembl_id>  (84) 
CHEMBL669279

>  <standard_relation>  (84) 
=

>  <assay_description>  (84) 
In vitro inhibition of human dihydrofolate reductase

>  <published_relation>  (84) 
=

>  <standard_value>  (84) 
3100

>  <qudt_units>  (84) 
http://www.openphacts.org/units/Nanomolar

>  <target_tax_id>  (84) 
9606

>  <bao_label>  (84) 
single protein format

>  <published_units>  (84) 
uM

>  <pchembl_value>  (84) 
5.51

>  <published_type>  (84) 
I50

>  <activity_comment>  (84) 
None

$$$$

     RDKit          

 23 25  0  0  0  0  0  0  0  0999 V2000
    0.0000    0.0000    0.0000 C   0  0  0  0  0  0  0  0  0  0  0  0
    0.0000    0.0000    0.0000 O   0  0  0  0  0  0  0  0  0  0  0  0
    0.0000    0.0000    0.0000 C   0  0  0  0  0  0  0  0  0  0  0  0
    0.0000    0.0000    0.0000 C   0  0  0  0  0  0  0  0  0  0  0  0
    0.0000    0.0000    0.0000 C   0  0  0  0  0  0  0  0  0  0  0  0
    0.0000    0.0000    0.0000 C   0  0  0  0  0  0  0  0  0  0  0  0
    0.0000    0.0000    0.0000 S   0  0  0  0  0  0  0  0  0  0  0  0
    0.0000    0.0000    0.0000 C   0  0  0  0  0  0  0  0  0  0  0  0
    0.0000    0.0000    0.0000 C   0  0  0  0  0  0  0  0  0  0  0  0
    0.0000    0.0000    0.0000 C   0  0  0  0  0  0  0  0  0  0  0  0
    0.0000    0.0000    0.0000 C   0  0  0  0  0  0  0  0  0  0  0  0
    0.0000    0.0000    0.0000 C   0  0  0  0  0  0  0  0  0  0  0  0
    0.0000    0.0000    0.0000 N   0  0  0  0  0  0  0  0  0  0  0  0
    0.0000    0.0000    0.0000 C   0  0  0  0  0  0  0  0  0  0  0  0
    0.0000    0.0000    0.0000 N   0  0  0  0  0  0  0  0  0  0  0  0
    0.0000    0.0000    0.0000 N   0  0  0  0  0  0  0  0  0  0  0  0
    0.0000    0.0000    0.0000 C   0  0  0  0  0  0  0  0  0  0  0  0
    0.0000    0.0000    0.0000 N   0  0  0  0  0  0  0  0  0  0  0  0
    0.0000    0.0000    0.0000 C   0  0  0  0  0  0  0  0  0  0  0  0
    0.0000    0.0000    0.0000 C   0  0  0  0  0  0  0  0  0  0  0  0
    0.0000    0.0000    0.0000 C   0  0  0  0  0  0  0  0  0  0  0  0
    0.0000    0.0000    0.0000 O   0  0  0  0  0  0  0  0  0  0  0  0
    0.0000    0.0000    0.0000 C   0  0  0  0  0  0  0  0  0  0  0  0
  1  2  1  0
  2  3  1  0
  3  4  2  0
  4  5  1  0
  5  6  2  0
  6  7  1  0
  7  8  1  0
  8  9  2  0
  9 10  1  0
 10 11  2  0
 11 12  1  0
 12 13  2  0
 13 14  1  0
 14 15  1  0
 14 16  2  0
 16 17  1  0
 17 18  1  0
 17 19  2  0
  6 20  1  0
 20 21  2  0
 21 22  1  0
 22 23  1  0
 21  3  1  0
 19  8  1  0
 19 12  1  0
M  END
>  <pIC50>  (85) 
5.39

>  <ChEMBL_ID>  (85) 
CHEMBL122647

>  <document_journal>  (85) 
J. Med. Chem.

>  <bao_endpoint>  (85) 
BAO_0000190

>  <potential_duplicate>  (85) 
False

>  <uo_units>  (85) 
UO_0000065

>  <canonical_smiles>  (85) 
COc1ccc(Sc2cccc3nc(N)nc(N)c23)cc1OC

>  <parent_molecule_chembl_id>  (85) 
CHEMBL122647

>  <assay_type>  (85) 
B

>  <src_id>  (85) 
1

>  <ligand_efficiency>  (85) 
{u'le': u'0.32', u'bei': u'16.4', u'sei': u'4.43', u'lle': u'2.35'}

>  <standard_flag>  (85) 
True

>  <molecule_chembl_id>  (85) 
CHEMBL122647

>  <target_organism>  (85) 
Homo sapiens

>  <standard_units>  (85) 
nM

>  <record_id>  (85) 
228701

>  <document_chembl_id>  (85) 
CHEMBL1128547

>  <bao_format>  (85) 
BAO_0000357

>  <data_validity_description>  (85) 
None

>  <activity_id>  (85) 
533555

>  <standard_type>  (85) 
IC50

>  <target_chembl_id>  (85) 
CHEMBL202

>  <data_validity_comment>  (85) 
None

>  <published_value>  (85) 
4.1

>  <document_year>  (85) 
1995

>  <target_pref_name>  (85) 
Dihydrofolate reductase

>  <assay_chembl_id>  (85) 
CHEMBL669279

>  <standard_relation>  (85) 
=

>  <assay_description>  (85) 
In vitro inhibition of human dihydrofolate reductase

>  <published_relation>  (85) 
=

>  <standard_value>  (85) 
4100

>  <qudt_units>  (85) 
http://www.openphacts.org/units/Nanomolar

>  <target_tax_id>  (85) 
9606

>  <bao_label>  (85) 
single protein format

>  <published_units>  (85) 
uM

>  <pchembl_value>  (85) 
5.39

>  <published_type>  (85) 
I50

>  <activity_comment>  (85) 
None

$$$$

     RDKit          

 23 25  0  0  0  0  0  0  0  0999 V2000
    0.0000    0.0000    0.0000 C   0  0  0  0  0  0  0  0  0  0  0  0
    0.0000    0.0000    0.0000 C   0  0  0  0  0  0  0  0  0  0  0  0
    0.0000    0.0000    0.0000 C   0  0  0  0  0  0  0  0  0  0  0  0
    0.0000    0.0000    0.0000 C   0  0  0  0  0  0  0  0  0  0  0  0
    0.0000    0.0000    0.0000 C   0  0  0  0  0  0  0  0  0  0  0  0
    0.0000    0.0000    0.0000 C   0  0  0  0  0  0  0  0  0  0  0  0
    0.0000    0.0000    0.0000 C   0  0  0  0  0  0  0  0  0  0  0  0
    0.0000    0.0000    0.0000 C   0  0  0  0  0  0  0  0  0  0  0  0
    0.0000    0.0000    0.0000 S   0  0  0  0  0  0  0  0  0  0  0  0
    0.0000    0.0000    0.0000 C   0  0  0  0  0  0  0  0  0  0  0  0
    0.0000    0.0000    0.0000 C   0  0  0  0  0  0  0  0  0  0  0  0
    0.0000    0.0000    0.0000 C   0  0  0  0  0  0  0  0  0  0  0  0
    0.0000    0.0000    0.0000 C   0  0  0  0  0  0  0  0  0  0  0  0
    0.0000    0.0000    0.0000 C   0  0  0  0  0  0  0  0  0  0  0  0
    0.0000    0.0000    0.0000 N   0  0  0  0  0  0  0  0  0  0  0  0
    0.0000    0.0000    0.0000 C   0  0  0  0  0  0  0  0  0  0  0  0
    0.0000    0.0000    0.0000 N   0  0  0  0  0  0  0  0  0  0  0  0
    0.0000    0.0000    0.0000 N   0  0  0  0  0  0  0  0  0  0  0  0
    0.0000    0.0000    0.0000 C   0  0  0  0  0  0  0  0  0  0  0  0
    0.0000    0.0000    0.0000 N   0  0  0  0  0  0  0  0  0  0  0  0
    0.0000    0.0000    0.0000 C   0  0  0  0  0  0  0  0  0  0  0  0
    0.0000    0.0000    0.0000 C   0  0  0  0  0  0  0  0  0  0  0  0
    0.0000    0.0000    0.0000 C   0  0  0  0  0  0  0  0  0  0  0  0
  1  2  1  0
  2  3  1  0
  2  4  1  0
  2  5  1  0
  5  6  2  0
  6  7  1  0
  7  8  2  0
  8  9  1  0
  9 10  1  0
 10 11  2  0
 11 12  1  0
 12 13  2  0
 13 14  1  0
 14 15  2  0
 15 16  1  0
 16 17  1  0
 16 18  2  0
 18 19  1  0
 19 20  1  0
 19 21  2  0
  8 22  1  0
 22 23  2  0
 23  5  1  0
 21 10  1  0
 21 14  1  0
M  END
>  <pIC50>  (86) 
5.7

>  <ChEMBL_ID>  (86) 
CHEMBL329985

>  <document_journal>  (86) 
J. Med. Chem.

>  <bao_endpoint>  (86) 
BAO_0000190

>  <potential_duplicate>  (86) 
False

>  <uo_units>  (86) 
UO_0000065

>  <canonical_smiles>  (86) 
CC(C)(C)c1ccc(Sc2cccc3nc(N)nc(N)c23)cc1

>  <parent_molecule_chembl_id>  (86) 
CHEMBL329985

>  <assay_type>  (86) 
B

>  <src_id>  (86) 
1

>  <ligand_efficiency>  (86) 
{u'le': u'0.34', u'bei': u'17.57', u'sei': u'5.53', u'lle': u'1.23'}

>  <standard_flag>  (86) 
True

>  <molecule_chembl_id>  (86) 
CHEMBL329985

>  <target_organism>  (86) 
Homo sapiens

>  <standard_units>  (86) 
nM

>  <record_id>  (86) 
228679

>  <document_chembl_id>  (86) 
CHEMBL1128547

>  <bao_format>  (86) 
BAO_0000357

>  <data_validity_description>  (86) 
None

>  <activity_id>  (86) 
534925

>  <standard_type>  (86) 
IC50

>  <target_chembl_id>  (86) 
CHEMBL202

>  <data_validity_comment>  (86) 
None

>  <published_value>  (86) 
2

>  <document_year>  (86) 
1995

>  <target_pref_name>  (86) 
Dihydrofolate reductase

>  <assay_chembl_id>  (86) 
CHEMBL669279

>  <standard_relation>  (86) 
=

>  <assay_description>  (86) 
In vitro inhibition of human dihydrofolate reductase

>  <published_relation>  (86) 
=

>  <standard_value>  (86) 
2000

>  <qudt_units>  (86) 
http://www.openphacts.org/units/Nanomolar

>  <target_tax_id>  (86) 
9606

>  <bao_label>  (86) 
single protein format

>  <published_units>  (86) 
uM

>  <pchembl_value>  (86) 
5.7

>  <published_type>  (86) 
I50

>  <activity_comment>  (86) 
None

$$$$

     RDKit          

 25 28  0  0  0  0  0  0  0  0999 V2000
    0.0000    0.0000    0.0000 N   0  0  0  0  0  0  0  0  0  0  0  0
    0.0000    0.0000    0.0000 C   0  0  0  0  0  0  0  0  0  0  0  0
    0.0000    0.0000    0.0000 N   0  0  0  0  0  0  0  0  0  0  0  0
    0.0000    0.0000    0.0000 C   0  0  0  0  0  0  0  0  0  0  0  0
    0.0000    0.0000    0.0000 N   0  0  0  0  0  0  0  0  0  0  0  0
    0.0000    0.0000    0.0000 C   0  0  0  0  0  0  0  0  0  0  0  0
    0.0000    0.0000    0.0000 C   0  0  0  0  0  0  0  0  0  0  0  0
    0.0000    0.0000    0.0000 S   0  0  0  0  0  0  0  0  0  0  0  0
    0.0000    0.0000    0.0000 C   0  0  0  0  0  0  0  0  0  0  0  0
    0.0000    0.0000    0.0000 C   0  0  0  0  0  0  0  0  0  0  0  0
    0.0000    0.0000    0.0000 C   0  0  0  0  0  0  0  0  0  0  0  0
    0.0000    0.0000    0.0000 C   0  0  0  0  0  0  0  0  0  0  0  0
    0.0000    0.0000    0.0000 C   0  0  0  0  0  0  0  0  0  0  0  0
    0.0000    0.0000    0.0000 C   0  0  0  0  0  0  0  0  0  0  0  0
    0.0000    0.0000    0.0000 N   0  0  0  0  0  0  0  0  0  0  0  0
    0.0000    0.0000    0.0000 C   0  0  0  0  0  0  0  0  0  0  0  0
    0.0000    0.0000    0.0000 C   0  0  0  0  0  0  0  0  0  0  0  0
    0.0000    0.0000    0.0000 O   0  0  0  0  0  0  0  0  0  0  0  0
    0.0000    0.0000    0.0000 C   0  0  0  0  0  0  0  0  0  0  0  0
    0.0000    0.0000    0.0000 C   0  0  0  0  0  0  0  0  0  0  0  0
    0.0000    0.0000    0.0000 C   0  0  0  0  0  0  0  0  0  0  0  0
    0.0000    0.0000    0.0000 C   0  0  0  0  0  0  0  0  0  0  0  0
    0.0000    0.0000    0.0000 C   0  0  0  0  0  0  0  0  0  0  0  0
    0.0000    0.0000    0.0000 C   0  0  0  0  0  0  0  0  0  0  0  0
    0.0000    0.0000    0.0000 N   0  0  0  0  0  0  0  0  0  0  0  0
  1  2  1  0
  2  3  2  0
  3  4  1  0
  4  5  1  0
  4  6  2  0
  6  7  1  0
  7  8  1  0
  8  9  1  0
  9 10  2  0
 10 11  1  0
 11 12  2  0
 12 13  1  0
 13 14  2  0
 12 15  1  0
 15 16  1  0
 16 17  1  0
 17 18  1  0
 18 19  1  0
 19 20  1  0
  7 21  2  0
 21 22  1  0
 22 23  2  0
 23 24  1  0
 24 25  2  0
 25  2  1  0
 24  6  1  0
 14  9  1  0
 20 15  1  0
M  END
>  <pIC50>  (87) 
4.16

>  <ChEMBL_ID>  (87) 
CHEMBL328827

>  <document_journal>  (87) 
J. Med. Chem.

>  <bao_endpoint>  (87) 
BAO_0000190

>  <potential_duplicate>  (87) 
False

>  <uo_units>  (87) 
UO_0000065

>  <canonical_smiles>  (87) 
Nc1nc(N)c2c(Sc3ccc(cc3)N4CCOCC4)cccc2n1

>  <parent_molecule_chembl_id>  (87) 
CHEMBL328827

>  <assay_type>  (87) 
B

>  <src_id>  (87) 
1

>  <ligand_efficiency>  (87) 
{u'le': u'0.23', u'bei': u'11.76', u'sei': u'3.59', u'lle': u'1.23'}

>  <standard_flag>  (87) 
True

>  <molecule_chembl_id>  (87) 
CHEMBL328827

>  <target_organism>  (87) 
Homo sapiens

>  <standard_units>  (87) 
nM

>  <record_id>  (87) 
228689

>  <document_chembl_id>  (87) 
CHEMBL1128547

>  <bao_format>  (87) 
BAO_0000357

>  <data_validity_description>  (87) 
None

>  <activity_id>  (87) 
534929

>  <standard_type>  (87) 
IC50

>  <target_chembl_id>  (87) 
CHEMBL202

>  <data_validity_comment>  (87) 
None

>  <published_value>  (87) 
70

>  <document_year>  (87) 
1995

>  <target_pref_name>  (87) 
Dihydrofolate reductase

>  <assay_chembl_id>  (87) 
CHEMBL669279

>  <standard_relation>  (87) 
=

>  <assay_description>  (87) 
In vitro inhibition of human dihydrofolate reductase

>  <published_relation>  (87) 
=

>  <standard_value>  (87) 
70000

>  <qudt_units>  (87) 
http://www.openphacts.org/units/Nanomolar

>  <target_tax_id>  (87) 
9606

>  <bao_label>  (87) 
single protein format

>  <published_units>  (87) 
uM

>  <pchembl_value>  (87) 
4.16

>  <published_type>  (87) 
I50

>  <activity_comment>  (87) 
None

$$$$

     RDKit          

 21 23  0  0  0  0  0  0  0  0999 V2000
    0.0000    0.0000    0.0000 C   0  0  0  0  0  0  0  0  0  0  0  0
    0.0000    0.0000    0.0000 O   0  0  0  0  0  0  0  0  0  0  0  0
    0.0000    0.0000    0.0000 C   0  0  0  0  0  0  0  0  0  0  0  0
    0.0000    0.0000    0.0000 C   0  0  0  0  0  0  0  0  0  0  0  0
    0.0000    0.0000    0.0000 C   0  0  0  0  0  0  0  0  0  0  0  0
    0.0000    0.0000    0.0000 C   0  0  0  0  0  0  0  0  0  0  0  0
    0.0000    0.0000    0.0000 C   0  0  0  0  0  0  0  0  0  0  0  0
    0.0000    0.0000    0.0000 C   0  0  0  0  0  0  0  0  0  0  0  0
    0.0000    0.0000    0.0000 S   0  0  0  0  0  0  0  0  0  0  0  0
    0.0000    0.0000    0.0000 C   0  0  0  0  0  0  0  0  0  0  0  0
    0.0000    0.0000    0.0000 C   0  0  0  0  0  0  0  0  0  0  0  0
    0.0000    0.0000    0.0000 C   0  0  0  0  0  0  0  0  0  0  0  0
    0.0000    0.0000    0.0000 C   0  0  0  0  0  0  0  0  0  0  0  0
    0.0000    0.0000    0.0000 C   0  0  0  0  0  0  0  0  0  0  0  0
    0.0000    0.0000    0.0000 N   0  0  0  0  0  0  0  0  0  0  0  0
    0.0000    0.0000    0.0000 C   0  0  0  0  0  0  0  0  0  0  0  0
    0.0000    0.0000    0.0000 N   0  0  0  0  0  0  0  0  0  0  0  0
    0.0000    0.0000    0.0000 N   0  0  0  0  0  0  0  0  0  0  0  0
    0.0000    0.0000    0.0000 C   0  0  0  0  0  0  0  0  0  0  0  0
    0.0000    0.0000    0.0000 N   0  0  0  0  0  0  0  0  0  0  0  0
    0.0000    0.0000    0.0000 C   0  0  0  0  0  0  0  0  0  0  0  0
  1  2  1  0
  2  3  1  0
  3  4  2  0
  4  5  1  0
  5  6  2  0
  6  7  1  0
  7  8  2  0
  8  9  1  0
  9 10  1  0
 10 11  2  0
 11 12  1  0
 12 13  2  0
 13 14  1  0
 14 15  2  0
 15 16  1  0
 16 17  1  0
 16 18  2  0
 18 19  1  0
 19 20  1  0
 19 21  2  0
  8  3  1  0
 21 10  1  0
 21 14  1  0
M  END
>  <pIC50>  (88) 
6.4

>  <ChEMBL_ID>  (88) 
CHEMBL121303

>  <document_journal>  (88) 
J. Med. Chem.

>  <bao_endpoint>  (88) 
BAO_0000190

>  <potential_duplicate>  (88) 
False

>  <uo_units>  (88) 
UO_0000065

>  <canonical_smiles>  (88) 
COc1ccccc1Sc2cccc3nc(N)nc(N)c23

>  <parent_molecule_chembl_id>  (88) 
CHEMBL121303

>  <assay_type>  (88) 
B

>  <src_id>  (88) 
1

>  <ligand_efficiency>  (88) 
{u'le': u'0.42', u'bei': u'21.44', u'sei': u'5.69', u'lle': u'3.34'}

>  <standard_flag>  (88) 
True

>  <molecule_chembl_id>  (88) 
CHEMBL121303

>  <target_organism>  (88) 
Homo sapiens

>  <standard_units>  (88) 
nM

>  <record_id>  (88) 
228698

>  <document_chembl_id>  (88) 
CHEMBL1128547

>  <bao_format>  (88) 
BAO_0000357

>  <data_validity_description>  (88) 
None

>  <activity_id>  (88) 
534933

>  <standard_type>  (88) 
IC50

>  <target_chembl_id>  (88) 
CHEMBL202

>  <data_validity_comment>  (88) 
None

>  <published_value>  (88) 
0.4

>  <document_year>  (88) 
1995

>  <target_pref_name>  (88) 
Dihydrofolate reductase

>  <assay_chembl_id>  (88) 
CHEMBL669279

>  <standard_relation>  (88) 
=

>  <assay_description>  (88) 
In vitro inhibition of human dihydrofolate reductase

>  <published_relation>  (88) 
=

>  <standard_value>  (88) 
400

>  <qudt_units>  (88) 
http://www.openphacts.org/units/Nanomolar

>  <target_tax_id>  (88) 
9606

>  <bao_label>  (88) 
single protein format

>  <published_units>  (88) 
uM

>  <pchembl_value>  (88) 
6.4

>  <published_type>  (88) 
I50

>  <activity_comment>  (88) 
None

$$$$

     RDKit          

 22 24  0  0  0  0  0  0  0  0999 V2000
    0.0000    0.0000    0.0000 C   0  0  0  0  0  0  0  0  0  0  0  0
    0.0000    0.0000    0.0000 C   0  0  0  0  0  0  0  0  0  0  0  0
    0.0000    0.0000    0.0000 C   0  0  0  0  0  0  0  0  0  0  0  0
    0.0000    0.0000    0.0000 C   0  0  0  0  0  0  0  0  0  0  0  0
    0.0000    0.0000    0.0000 C   0  0  0  0  0  0  0  0  0  0  0  0
    0.0000    0.0000    0.0000 C   0  0  0  0  0  0  0  0  0  0  0  0
    0.0000    0.0000    0.0000 C   0  0  0  0  0  0  0  0  0  0  0  0
    0.0000    0.0000    0.0000 S   0  0  0  0  0  0  0  0  0  0  0  0
    0.0000    0.0000    0.0000 C   0  0  0  0  0  0  0  0  0  0  0  0
    0.0000    0.0000    0.0000 C   0  0  0  0  0  0  0  0  0  0  0  0
    0.0000    0.0000    0.0000 C   0  0  0  0  0  0  0  0  0  0  0  0
    0.0000    0.0000    0.0000 C   0  0  0  0  0  0  0  0  0  0  0  0
    0.0000    0.0000    0.0000 C   0  0  0  0  0  0  0  0  0  0  0  0
    0.0000    0.0000    0.0000 N   0  0  0  0  0  0  0  0  0  0  0  0
    0.0000    0.0000    0.0000 C   0  0  0  0  0  0  0  0  0  0  0  0
    0.0000    0.0000    0.0000 N   0  0  0  0  0  0  0  0  0  0  0  0
    0.0000    0.0000    0.0000 N   0  0  0  0  0  0  0  0  0  0  0  0
    0.0000    0.0000    0.0000 C   0  0  0  0  0  0  0  0  0  0  0  0
    0.0000    0.0000    0.0000 N   0  0  0  0  0  0  0  0  0  0  0  0
    0.0000    0.0000    0.0000 C   0  0  0  0  0  0  0  0  0  0  0  0
    0.0000    0.0000    0.0000 C   0  0  0  0  0  0  0  0  0  0  0  0
    0.0000    0.0000    0.0000 C   0  0  0  0  0  0  0  0  0  0  0  0
  1  2  1  0
  2  3  1  0
  2  4  1  0
  4  5  2  0
  5  6  1  0
  6  7  2  0
  7  8  1  0
  8  9  1  0
  9 10  2  0
 10 11  1  0
 11 12  2  0
 12 13  1  0
 13 14  2  0
 14 15  1  0
 15 16  1  0
 15 17  2  0
 17 18  1  0
 18 19  1  0
 18 20  2  0
  7 21  1  0
 21 22  2  0
 22  4  1  0
 20  9  1  0
 20 13  1  0
M  END
>  <pIC50>  (89) 
5.62

>  <ChEMBL_ID>  (89) 
CHEMBL124304

>  <document_journal>  (89) 
J. Med. Chem.

>  <bao_endpoint>  (89) 
BAO_0000190

>  <potential_duplicate>  (89) 
False

>  <uo_units>  (89) 
UO_0000065

>  <canonical_smiles>  (89) 
CC(C)c1ccc(Sc2cccc3nc(N)nc(N)c23)cc1

>  <parent_molecule_chembl_id>  (89) 
CHEMBL124304

>  <assay_type>  (89) 
B

>  <src_id>  (89) 
1

>  <ligand_efficiency>  (89) 
{u'le': u'0.35', u'bei': u'18.1', u'sei': u'5.45', u'lle': u'1.35'}

>  <standard_flag>  (89) 
True

>  <molecule_chembl_id>  (89) 
CHEMBL124304

>  <target_organism>  (89) 
Homo sapiens

>  <standard_units>  (89) 
nM

>  <record_id>  (89) 
228709

>  <document_chembl_id>  (89) 
CHEMBL1128547

>  <bao_format>  (89) 
BAO_0000357

>  <data_validity_description>  (89) 
None

>  <activity_id>  (89) 
536261

>  <standard_type>  (89) 
IC50

>  <target_chembl_id>  (89) 
CHEMBL202

>  <data_validity_comment>  (89) 
None

>  <published_value>  (89) 
2.4

>  <document_year>  (89) 
1995

>  <target_pref_name>  (89) 
Dihydrofolate reductase

>  <assay_chembl_id>  (89) 
CHEMBL669279

>  <standard_relation>  (89) 
=

>  <assay_description>  (89) 
In vitro inhibition of human dihydrofolate reductase

>  <published_relation>  (89) 
=

>  <standard_value>  (89) 
2400

>  <qudt_units>  (89) 
http://www.openphacts.org/units/Nanomolar

>  <target_tax_id>  (89) 
9606

>  <bao_label>  (89) 
single protein format

>  <published_units>  (89) 
uM

>  <pchembl_value>  (89) 
5.62

>  <published_type>  (89) 
I50

>  <activity_comment>  (89) 
None

$$$$

     RDKit          

 25 27  0  0  0  0  0  0  0  0999 V2000
    0.0000    0.0000    0.0000 C   0  0  0  0  0  0  0  0  0  0  0  0
    0.0000    0.0000    0.0000 C   0  0  0  0  0  0  0  0  0  0  0  0
    0.0000    0.0000    0.0000 C   0  0  0  0  0  0  0  0  0  0  0  0
    0.0000    0.0000    0.0000 C   0  0  0  0  0  0  0  0  0  0  0  0
    0.0000    0.0000    0.0000 C   0  0  0  0  0  0  0  0  0  0  0  0
    0.0000    0.0000    0.0000 C   0  0  0  0  0  0  0  0  0  0  0  0
    0.0000    0.0000    0.0000 C   0  0  0  0  0  0  0  0  0  0  0  0
    0.0000    0.0000    0.0000 C   0  0  0  0  0  0  0  0  0  0  0  0
    0.0000    0.0000    0.0000 C   0  0  0  0  0  0  0  0  0  0  0  0
    0.0000    0.0000    0.0000 C   0  0  0  0  0  0  0  0  0  0  0  0
    0.0000    0.0000    0.0000 S   0  0  0  0  0  0  0  0  0  0  0  0
    0.0000    0.0000    0.0000 C   0  0  0  0  0  0  0  0  0  0  0  0
    0.0000    0.0000    0.0000 C   0  0  0  0  0  0  0  0  0  0  0  0
    0.0000    0.0000    0.0000 C   0  0  0  0  0  0  0  0  0  0  0  0
    0.0000    0.0000    0.0000 C   0  0  0  0  0  0  0  0  0  0  0  0
    0.0000    0.0000    0.0000 C   0  0  0  0  0  0  0  0  0  0  0  0
    0.0000    0.0000    0.0000 N   0  0  0  0  0  0  0  0  0  0  0  0
    0.0000    0.0000    0.0000 C   0  0  0  0  0  0  0  0  0  0  0  0
    0.0000    0.0000    0.0000 N   0  0  0  0  0  0  0  0  0  0  0  0
    0.0000    0.0000    0.0000 N   0  0  0  0  0  0  0  0  0  0  0  0
    0.0000    0.0000    0.0000 C   0  0  0  0  0  0  0  0  0  0  0  0
    0.0000    0.0000    0.0000 N   0  0  0  0  0  0  0  0  0  0  0  0
    0.0000    0.0000    0.0000 C   0  0  0  0  0  0  0  0  0  0  0  0
    0.0000    0.0000    0.0000 C   0  0  0  0  0  0  0  0  0  0  0  0
    0.0000    0.0000    0.0000 C   0  0  0  0  0  0  0  0  0  0  0  0
  1  2  1  0
  2  3  1  0
  3  4  1  0
  4  5  1  0
  5  6  1  0
  6  7  1  0
  7  8  2  0
  8  9  1  0
  9 10  2  0
 10 11  1  0
 11 12  1  0
 12 13  2  0
 13 14  1  0
 14 15  2  0
 15 16  1  0
 16 17  2  0
 17 18  1  0
 18 19  1  0
 18 20  2  0
 20 21  1  0
 21 22  1  0
 21 23  2  0
 10 24  1  0
 24 25  2  0
 25  7  1  0
 23 12  1  0
 23 16  1  0
M  END
>  <pIC50>  (90) 
6.26

>  <ChEMBL_ID>  (90) 
CHEMBL121595

>  <document_journal>  (90) 
J. Med. Chem.

>  <bao_endpoint>  (90) 
BAO_0000190

>  <potential_duplicate>  (90) 
False

>  <uo_units>  (90) 
UO_0000065

>  <canonical_smiles>  (90) 
CCCCCCc1ccc(Sc2cccc3nc(N)nc(N)c23)cc1

>  <parent_molecule_chembl_id>  (90) 
CHEMBL121595

>  <assay_type>  (90) 
B

>  <src_id>  (90) 
1

>  <ligand_efficiency>  (90) 
{u'le': u'0.34', u'bei': u'17.76', u'sei': u'6.07', u'lle': u'0.42'}

>  <standard_flag>  (90) 
True

>  <molecule_chembl_id>  (90) 
CHEMBL121595

>  <target_organism>  (90) 
Homo sapiens

>  <standard_units>  (90) 
nM

>  <record_id>  (90) 
228680

>  <document_chembl_id>  (90) 
CHEMBL1128547

>  <bao_format>  (90) 
BAO_0000357

>  <data_validity_description>  (90) 
None

>  <activity_id>  (90) 
536265

>  <standard_type>  (90) 
IC50

>  <target_chembl_id>  (90) 
CHEMBL202

>  <data_validity_comment>  (90) 
None

>  <published_value>  (90) 
0.55

>  <document_year>  (90) 
1995

>  <target_pref_name>  (90) 
Dihydrofolate reductase

>  <assay_chembl_id>  (90) 
CHEMBL669279

>  <standard_relation>  (90) 
=

>  <assay_description>  (90) 
In vitro inhibition of human dihydrofolate reductase

>  <published_relation>  (90) 
=

>  <standard_value>  (90) 
550

>  <qudt_units>  (90) 
http://www.openphacts.org/units/Nanomolar

>  <target_tax_id>  (90) 
9606

>  <bao_label>  (90) 
single protein format

>  <published_units>  (90) 
uM

>  <pchembl_value>  (90) 
6.26

>  <published_type>  (90) 
I50

>  <activity_comment>  (90) 
None

$$$$

     RDKit          

 20 22  0  0  0  0  0  0  0  0999 V2000
    0.0000    0.0000    0.0000 N   0  0  0  0  0  0  0  0  0  0  0  0
    0.0000    0.0000    0.0000 C   0  0  0  0  0  0  0  0  0  0  0  0
    0.0000    0.0000    0.0000 N   0  0  0  0  0  0  0  0  0  0  0  0
    0.0000    0.0000    0.0000 C   0  0  0  0  0  0  0  0  0  0  0  0
    0.0000    0.0000    0.0000 N   0  0  0  0  0  0  0  0  0  0  0  0
    0.0000    0.0000    0.0000 C   0  0  0  0  0  0  0  0  0  0  0  0
    0.0000    0.0000    0.0000 C   0  0  0  0  0  0  0  0  0  0  0  0
    0.0000    0.0000    0.0000 S   0  0  0  0  0  0  0  0  0  0  0  0
    0.0000    0.0000    0.0000 C   0  0  0  0  0  0  0  0  0  0  0  0
    0.0000    0.0000    0.0000 C   0  0  0  0  0  0  0  0  0  0  0  0
    0.0000    0.0000    0.0000 C   0  0  0  0  0  0  0  0  0  0  0  0
    0.0000    0.0000    0.0000 C   0  0  0  0  0  0  0  0  0  0  0  0
    0.0000    0.0000    0.0000 Cl  0  0  0  0  0  0  0  0  0  0  0  0
    0.0000    0.0000    0.0000 C   0  0  0  0  0  0  0  0  0  0  0  0
    0.0000    0.0000    0.0000 C   0  0  0  0  0  0  0  0  0  0  0  0
    0.0000    0.0000    0.0000 C   0  0  0  0  0  0  0  0  0  0  0  0
    0.0000    0.0000    0.0000 C   0  0  0  0  0  0  0  0  0  0  0  0
    0.0000    0.0000    0.0000 C   0  0  0  0  0  0  0  0  0  0  0  0
    0.0000    0.0000    0.0000 C   0  0  0  0  0  0  0  0  0  0  0  0
    0.0000    0.0000    0.0000 N   0  0  0  0  0  0  0  0  0  0  0  0
  1  2  1  0
  2  3  2  0
  3  4  1  0
  4  5  1  0
  4  6  2  0
  6  7  1  0
  7  8  1  0
  8  9  1  0
  9 10  2  0
 10 11  1  0
 11 12  2  0
 12 13  1  0
 12 14  1  0
 14 15  2  0
  7 16  2  0
 16 17  1  0
 17 18  2  0
 18 19  1  0
 19 20  2  0
 20  2  1  0
 19  6  1  0
 15  9  1  0
M  END
>  <pIC50>  (91) 
5.68

>  <ChEMBL_ID>  (91) 
CHEMBL310759

>  <document_journal>  (91) 
J. Med. Chem.

>  <bao_endpoint>  (91) 
BAO_0000190

>  <potential_duplicate>  (91) 
False

>  <uo_units>  (91) 
UO_0000065

>  <canonical_smiles>  (91) 
Nc1nc(N)c2c(Sc3ccc(Cl)cc3)cccc2n1

>  <parent_molecule_chembl_id>  (91) 
CHEMBL310759

>  <assay_type>  (91) 
B

>  <src_id>  (91) 
1

>  <ligand_efficiency>  (91) 
{u'le': u'0.39', u'bei': u'18.75', u'sei': u'5.51', u'lle': u'1.94'}

>  <standard_flag>  (91) 
True

>  <molecule_chembl_id>  (91) 
CHEMBL310759

>  <target_organism>  (91) 
Homo sapiens

>  <standard_units>  (91) 
nM

>  <record_id>  (91) 
228688

>  <document_chembl_id>  (91) 
CHEMBL1128547

>  <bao_format>  (91) 
BAO_0000357

>  <data_validity_description>  (91) 
None

>  <activity_id>  (91) 
537646

>  <standard_type>  (91) 
IC50

>  <target_chembl_id>  (91) 
CHEMBL202

>  <data_validity_comment>  (91) 
None

>  <published_value>  (91) 
2.1

>  <document_year>  (91) 
1995

>  <target_pref_name>  (91) 
Dihydrofolate reductase

>  <assay_chembl_id>  (91) 
CHEMBL669279

>  <standard_relation>  (91) 
=

>  <assay_description>  (91) 
In vitro inhibition of human dihydrofolate reductase

>  <published_relation>  (91) 
=

>  <standard_value>  (91) 
2100

>  <qudt_units>  (91) 
http://www.openphacts.org/units/Nanomolar

>  <target_tax_id>  (91) 
9606

>  <bao_label>  (91) 
single protein format

>  <published_units>  (91) 
uM

>  <pchembl_value>  (91) 
5.68

>  <published_type>  (91) 
I50

>  <activity_comment>  (91) 
None

$$$$

     RDKit          

 25 27  0  0  0  0  0  0  0  0999 V2000
    0.0000    0.0000    0.0000 C   0  0  0  0  0  0  0  0  0  0  0  0
    0.0000    0.0000    0.0000 O   0  0  0  0  0  0  0  0  0  0  0  0
    0.0000    0.0000    0.0000 C   0  0  0  0  0  0  0  0  0  0  0  0
    0.0000    0.0000    0.0000 C   0  0  0  0  0  0  0  0  0  0  0  0
    0.0000    0.0000    0.0000 C   0  0  0  0  0  0  0  0  0  0  0  0
    0.0000    0.0000    0.0000 S   0  0  0  0  0  0  0  0  0  0  0  0
    0.0000    0.0000    0.0000 C   0  0  0  0  0  0  0  0  0  0  0  0
    0.0000    0.0000    0.0000 C   0  0  0  0  0  0  0  0  0  0  0  0
    0.0000    0.0000    0.0000 C   0  0  0  0  0  0  0  0  0  0  0  0
    0.0000    0.0000    0.0000 C   0  0  0  0  0  0  0  0  0  0  0  0
    0.0000    0.0000    0.0000 C   0  0  0  0  0  0  0  0  0  0  0  0
    0.0000    0.0000    0.0000 N   0  0  0  0  0  0  0  0  0  0  0  0
    0.0000    0.0000    0.0000 C   0  0  0  0  0  0  0  0  0  0  0  0
    0.0000    0.0000    0.0000 N   0  0  0  0  0  0  0  0  0  0  0  0
    0.0000    0.0000    0.0000 N   0  0  0  0  0  0  0  0  0  0  0  0
    0.0000    0.0000    0.0000 C   0  0  0  0  0  0  0  0  0  0  0  0
    0.0000    0.0000    0.0000 N   0  0  0  0  0  0  0  0  0  0  0  0
    0.0000    0.0000    0.0000 C   0  0  0  0  0  0  0  0  0  0  0  0
    0.0000    0.0000    0.0000 C   0  0  0  0  0  0  0  0  0  0  0  0
    0.0000    0.0000    0.0000 C   0  0  0  0  0  0  0  0  0  0  0  0
    0.0000    0.0000    0.0000 O   0  0  0  0  0  0  0  0  0  0  0  0
    0.0000    0.0000    0.0000 C   0  0  0  0  0  0  0  0  0  0  0  0
    0.0000    0.0000    0.0000 C   0  0  0  0  0  0  0  0  0  0  0  0
    0.0000    0.0000    0.0000 O   0  0  0  0  0  0  0  0  0  0  0  0
    0.0000    0.0000    0.0000 C   0  0  0  0  0  0  0  0  0  0  0  0
  1  2  1  0
  2  3  1  0
  3  4  2  0
  4  5  1  0
  5  6  1  0
  6  7  1  0
  7  8  2  0
  8  9  1  0
  9 10  2  0
 10 11  1  0
 11 12  2  0
 12 13  1  0
 13 14  1  0
 13 15  2  0
 15 16  1  0
 16 17  1  0
 16 18  2  0
  5 19  2  0
 19 20  1  0
 20 21  1  0
 21 22  1  0
 20 23  2  0
 23 24  1  0
 24 25  1  0
 23  3  1  0
 18  7  1  0
 18 11  1  0
M  END
>  <pIC50>  (92) 
5.36

>  <ChEMBL_ID>  (92) 
CHEMBL120924

>  <document_journal>  (92) 
J. Med. Chem.

>  <bao_endpoint>  (92) 
BAO_0000190

>  <potential_duplicate>  (92) 
False

>  <uo_units>  (92) 
UO_0000065

>  <canonical_smiles>  (92) 
COc1cc(Sc2cccc3nc(N)nc(N)c23)cc(OC)c1OC

>  <parent_molecule_chembl_id>  (92) 
CHEMBL120924

>  <assay_type>  (92) 
B

>  <src_id>  (92) 
1

>  <ligand_efficiency>  (92) 
{u'le': u'0.29', u'bei': u'14.95', u'sei': u'4.09', u'lle': u'2.34'}

>  <standard_flag>  (92) 
True

>  <molecule_chembl_id>  (92) 
CHEMBL120924

>  <target_organism>  (92) 
Homo sapiens

>  <standard_units>  (92) 
nM

>  <record_id>  (92) 
228700

>  <document_chembl_id>  (92) 
CHEMBL1128547

>  <bao_format>  (92) 
BAO_0000357

>  <data_validity_description>  (92) 
None

>  <activity_id>  (92) 
537650

>  <standard_type>  (92) 
IC50

>  <target_chembl_id>  (92) 
CHEMBL202

>  <data_validity_comment>  (92) 
None

>  <published_value>  (92) 
4.4

>  <document_year>  (92) 
1995

>  <target_pref_name>  (92) 
Dihydrofolate reductase

>  <assay_chembl_id>  (92) 
CHEMBL669279

>  <standard_relation>  (92) 
=

>  <assay_description>  (92) 
In vitro inhibition of human dihydrofolate reductase

>  <published_relation>  (92) 
=

>  <standard_value>  (92) 
4400

>  <qudt_units>  (92) 
http://www.openphacts.org/units/Nanomolar

>  <target_tax_id>  (92) 
9606

>  <bao_label>  (92) 
single protein format

>  <published_units>  (92) 
uM

>  <pchembl_value>  (92) 
5.36

>  <published_type>  (92) 
I50

>  <activity_comment>  (92) 
None

$$$$

     RDKit          

 22 24  0  0  0  0  0  0  0  0999 V2000
    0.0000    0.0000    0.0000 N   0  0  0  0  0  0  0  0  0  0  0  0
    0.0000    0.0000    0.0000 C   0  0  0  0  0  0  0  0  0  0  0  0
    0.0000    0.0000    0.0000 N   0  0  0  0  0  0  0  0  0  0  0  0
    0.0000    0.0000    0.0000 C   0  0  0  0  0  0  0  0  0  0  0  0
    0.0000    0.0000    0.0000 N   0  0  0  0  0  0  0  0  0  0  0  0
    0.0000    0.0000    0.0000 C   0  0  0  0  0  0  0  0  0  0  0  0
    0.0000    0.0000    0.0000 C   0  0  0  0  0  0  0  0  0  0  0  0
    0.0000    0.0000    0.0000 S   0  0  0  0  0  0  0  0  0  0  0  0
    0.0000    0.0000    0.0000 C   0  0  0  0  0  0  0  0  0  0  0  0
    0.0000    0.0000    0.0000 C   0  0  0  0  0  0  0  0  0  0  0  0
    0.0000    0.0000    0.0000 C   0  0  0  0  0  0  0  0  0  0  0  0
    0.0000    0.0000    0.0000 C   0  0  0  0  0  0  0  0  0  0  0  0
    0.0000    0.0000    0.0000 C   0  0  0  0  0  0  0  0  0  0  0  0
    0.0000    0.0000    0.0000 C   0  0  0  0  0  0  0  0  0  0  0  0
    0.0000    0.0000    0.0000 N   0  0  0  0  0  0  0  0  0  0  0  0
    0.0000    0.0000    0.0000 O   0  0  0  0  0  0  0  0  0  0  0  0
    0.0000    0.0000    0.0000 O   0  0  0  0  0  0  0  0  0  0  0  0
    0.0000    0.0000    0.0000 C   0  0  0  0  0  0  0  0  0  0  0  0
    0.0000    0.0000    0.0000 C   0  0  0  0  0  0  0  0  0  0  0  0
    0.0000    0.0000    0.0000 C   0  0  0  0  0  0  0  0  0  0  0  0
    0.0000    0.0000    0.0000 C   0  0  0  0  0  0  0  0  0  0  0  0
    0.0000    0.0000    0.0000 N   0  0  0  0  0  0  0  0  0  0  0  0
  1  2  1  0
  2  3  2  0
  3  4  1  0
  4  5  1  0
  4  6  2  0
  6  7  1  0
  7  8  1  0
  8  9  1  0
  9 10  2  0
 10 11  1  0
 11 12  2  0
 12 13  1  0
 13 14  2  0
 12 15  1  0
 15 16  2  0
 15 17  1  0
  7 18  2  0
 18 19  1  0
 19 20  2  0
 20 21  1  0
 21 22  2  0
 22  2  1  0
 21  6  1  0
 14  9  1  0
M  CHG  2  15   1  17  -1
M  END
>  <pIC50>  (93) 
4.62

>  <ChEMBL_ID>  (93) 
CHEMBL121680

>  <document_journal>  (93) 
J. Med. Chem.

>  <bao_endpoint>  (93) 
BAO_0000190

>  <potential_duplicate>  (93) 
False

>  <uo_units>  (93) 
UO_0000065

>  <canonical_smiles>  (93) 
Nc1nc(N)c2c(Sc3ccc(cc3)[N+](=O)[O-])cccc2n1

>  <parent_molecule_chembl_id>  (93) 
CHEMBL121680

>  <assay_type>  (93) 
B

>  <src_id>  (93) 
1

>  <ligand_efficiency>  (93) 
{u'le': u'0.29', u'bei': u'14.74', u'sei': u'3.1', u'lle': u'1.65'}

>  <standard_flag>  (93) 
True

>  <molecule_chembl_id>  (93) 
CHEMBL121680

>  <target_organism>  (93) 
Homo sapiens

>  <standard_units>  (93) 
nM

>  <record_id>  (93) 
228684

>  <document_chembl_id>  (93) 
CHEMBL1128547

>  <bao_format>  (93) 
BAO_0000357

>  <data_validity_description>  (93) 
None

>  <activity_id>  (93) 
540165

>  <standard_type>  (93) 
IC50

>  <target_chembl_id>  (93) 
CHEMBL202

>  <data_validity_comment>  (93) 
None

>  <published_value>  (93) 
24

>  <document_year>  (93) 
1995

>  <target_pref_name>  (93) 
Dihydrofolate reductase

>  <assay_chembl_id>  (93) 
CHEMBL669279

>  <standard_relation>  (93) 
=

>  <assay_description>  (93) 
In vitro inhibition of human dihydrofolate reductase

>  <published_relation>  (93) 
=

>  <standard_value>  (93) 
24000

>  <qudt_units>  (93) 
http://www.openphacts.org/units/Nanomolar

>  <target_tax_id>  (93) 
9606

>  <bao_label>  (93) 
single protein format

>  <published_units>  (93) 
uM

>  <pchembl_value>  (93) 
4.62

>  <published_type>  (93) 
I50

>  <activity_comment>  (93) 
None

$$$$

     RDKit          

 34 36  0  0  0  0  0  0  0  0999 V2000
    0.0000    0.0000    0.0000 C   0  0  0  0  0  0  0  0  0  0  0  0
    0.0000    0.0000    0.0000 C   0  0  0  0  0  0  0  0  0  0  0  0
    0.0000    0.0000    0.0000 C   0  0  0  0  0  0  0  0  0  0  0  0
    0.0000    0.0000    0.0000 C   0  0  0  0  0  0  0  0  0  0  0  0
    0.0000    0.0000    0.0000 C   0  0  0  0  0  0  0  0  0  0  0  0
    0.0000    0.0000    0.0000 C   0  0  0  0  0  0  0  0  0  0  0  0
    0.0000    0.0000    0.0000 C   0  0  0  0  0  0  0  0  0  0  0  0
    0.0000    0.0000    0.0000 C   0  0  0  0  0  0  0  0  0  0  0  0
    0.0000    0.0000    0.0000 C   0  0  0  0  0  0  0  0  0  0  0  0
    0.0000    0.0000    0.0000 C   0  0  0  0  0  0  0  0  0  0  0  0
    0.0000    0.0000    0.0000 C   0  0  0  0  0  0  0  0  0  0  0  0
    0.0000    0.0000    0.0000 O   0  0  0  0  0  0  0  0  0  0  0  0
    0.0000    0.0000    0.0000 N   0  0  0  0  0  0  0  0  0  0  0  0
    0.0000    0.0000    0.0000 C   0  0  0  0  0  0  0  0  0  0  0  0
    0.0000    0.0000    0.0000 C   0  0  0  0  0  0  0  0  0  0  0  0
    0.0000    0.0000    0.0000 C   0  0  0  0  0  0  0  0  0  0  0  0
    0.0000    0.0000    0.0000 C   0  0  0  0  0  0  0  0  0  0  0  0
    0.0000    0.0000    0.0000 O   0  0  0  0  0  0  0  0  0  0  0  0
    0.0000    0.0000    0.0000 O   0  0  0  0  0  0  0  0  0  0  0  0
    0.0000    0.0000    0.0000 C   0  0  0  0  0  0  0  0  0  0  0  0
    0.0000    0.0000    0.0000 O   0  0  0  0  0  0  0  0  0  0  0  0
    0.0000    0.0000    0.0000 O   0  0  0  0  0  0  0  0  0  0  0  0
    0.0000    0.0000    0.0000 C   0  0  0  0  0  0  0  0  0  0  0  0
    0.0000    0.0000    0.0000 C   0  0  0  0  0  0  0  0  0  0  0  0
    0.0000    0.0000    0.0000 N   0  0  0  0  0  0  0  0  0  0  0  0
    0.0000    0.0000    0.0000 C   0  0  0  0  0  0  0  0  0  0  0  0
    0.0000    0.0000    0.0000 N   0  0  0  0  0  0  0  0  0  0  0  0
    0.0000    0.0000    0.0000 C   0  0  0  0  0  0  0  0  0  0  0  0
    0.0000    0.0000    0.0000 N   0  0  0  0  0  0  0  0  0  0  0  0
    0.0000    0.0000    0.0000 N   0  0  0  0  0  0  0  0  0  0  0  0
    0.0000    0.0000    0.0000 C   0  0  0  0  0  0  0  0  0  0  0  0
    0.0000    0.0000    0.0000 N   0  0  0  0  0  0  0  0  0  0  0  0
    0.0000    0.0000    0.0000 C   0  0  0  0  0  0  0  0  0  0  0  0
    0.0000    0.0000    0.0000 N   0  0  0  0  0  0  0  0  0  0  0  0
  1  2  1  0
  2  3  1  0
  3  4  1  0
  4  5  1  0
  5  6  2  0
  6  7  1  0
  7  8  2  0
  8  9  1  0
  9 10  2  0
  8 11  1  0
 11 12  2  0
 11 13  1  0
 13 14  1  0
 14 15  1  0
 15 16  1  0
 16 17  1  0
 17 18  2  0
 17 19  1  0
 14 20  1  0
 20 21  2  0
 20 22  1  0
  3 23  1  0
 23 24  2  0
 24 25  1  0
 25 26  2  0
 26 27  1  0
 27 28  2  0
 28 29  1  0
 28 30  1  0
 30 31  2  0
 31 32  1  0
 31 33  1  0
 33 34  2  0
 10  5  1  0
 34 23  1  0
 33 26  1  0
M  END
>  <pIC50>  (94) 
7.16

>  <ChEMBL_ID>  (94) 
CHEMBL302068

>  <document_journal>  (94) 
J. Med. Chem.

>  <bao_endpoint>  (94) 
BAO_0000190

>  <potential_duplicate>  (94) 
False

>  <uo_units>  (94) 
UO_0000065

>  <canonical_smiles>  (94) 
CCC(Cc1ccc(cc1)C(=O)NC(CCC(=O)O)C(=O)O)c2cnc3nc(N)nc(N)c3n2

>  <parent_molecule_chembl_id>  (94) 
CHEMBL302068

>  <assay_type>  (94) 
B

>  <src_id>  (94) 
1

>  <ligand_efficiency>  (94) 
{u'le': u'0.29', u'bei': u'15.31', u'sei': u'3.45', u'lle': u'5.64'}

>  <standard_flag>  (94) 
True

>  <molecule_chembl_id>  (94) 
CHEMBL302068

>  <target_organism>  (94) 
Homo sapiens

>  <standard_units>  (94) 
nM

>  <record_id>  (94) 
119119

>  <document_chembl_id>  (94) 
CHEMBL1124936

>  <bao_format>  (94) 
BAO_0000219

>  <data_validity_description>  (94) 
None

>  <activity_id>  (94) 
543212

>  <standard_type>  (94) 
IC50

>  <target_chembl_id>  (94) 
CHEMBL202

>  <data_validity_comment>  (94) 
None

>  <published_value>  (94) 
0.07

>  <document_year>  (94) 
1990

>  <target_pref_name>  (94) 
Dihydrofolate reductase

>  <assay_chembl_id>  (94) 
CHEMBL669987

>  <standard_relation>  (94) 
=

>  <assay_description>  (94) 
Binding affinity towards Dihydrofolate reductase derived from L1210 cells using [3H]- MTX as the radioligand

>  <published_relation>  (94) 
=

>  <standard_value>  (94) 
70

>  <qudt_units>  (94) 
http://www.openphacts.org/units/Nanomolar

>  <target_tax_id>  (94) 
9606

>  <bao_label>  (94) 
cell-based format

>  <published_units>  (94) 
uM

>  <pchembl_value>  (94) 
7.16

>  <published_type>  (94) 
IC50

>  <activity_comment>  (94) 
None

$$$$

     RDKit          

 26 28  0  0  0  0  0  0  0  0999 V2000
    0.0000    0.0000    0.0000 C   0  0  0  0  0  0  0  0  0  0  0  0
    0.0000    0.0000    0.0000 C   0  0  0  0  0  0  0  0  0  0  0  0
    0.0000    0.0000    0.0000 O   0  0  0  0  0  0  0  0  0  0  0  0
    0.0000    0.0000    0.0000 C   0  0  0  0  0  0  0  0  0  0  0  0
    0.0000    0.0000    0.0000 C   0  0  0  0  0  0  0  0  0  0  0  0
    0.0000    0.0000    0.0000 C   0  0  0  0  0  0  0  0  0  0  0  0
    0.0000    0.0000    0.0000 C   0  0  0  0  0  0  0  0  0  0  0  0
    0.0000    0.0000    0.0000 N   0  0  0  0  0  0  0  0  0  0  0  0
    0.0000    0.0000    0.0000 C   0  0  0  0  0  0  0  0  0  0  0  0
    0.0000    0.0000    0.0000 N   0  0  0  0  0  0  0  0  0  0  0  0
    0.0000    0.0000    0.0000 N   0  0  0  0  0  0  0  0  0  0  0  0
    0.0000    0.0000    0.0000 C   0  0  0  0  0  0  0  0  0  0  0  0
    0.0000    0.0000    0.0000 N   0  0  0  0  0  0  0  0  0  0  0  0
    0.0000    0.0000    0.0000 C   0  0  0  0  0  0  0  0  0  0  0  0
    0.0000    0.0000    0.0000 C   0  0  0  0  0  0  0  0  0  0  0  0
    0.0000    0.0000    0.0000 S   0  0  0  0  0  0  0  0  0  0  0  0
    0.0000    0.0000    0.0000 C   0  0  0  0  0  0  0  0  0  0  0  0
    0.0000    0.0000    0.0000 C   0  0  0  0  0  0  0  0  0  0  0  0
    0.0000    0.0000    0.0000 C   0  0  0  0  0  0  0  0  0  0  0  0
    0.0000    0.0000    0.0000 C   0  0  0  0  0  0  0  0  0  0  0  0
    0.0000    0.0000    0.0000 C   0  0  0  0  0  0  0  0  0  0  0  0
    0.0000    0.0000    0.0000 C   0  0  0  0  0  0  0  0  0  0  0  0
    0.0000    0.0000    0.0000 C   0  0  0  0  0  0  0  0  0  0  0  0
    0.0000    0.0000    0.0000 C   0  0  0  0  0  0  0  0  0  0  0  0
    0.0000    0.0000    0.0000 C   0  0  0  0  0  0  0  0  0  0  0  0
    0.0000    0.0000    0.0000 C   0  0  0  0  0  0  0  0  0  0  0  0
  1  2  1  0
  2  3  1  0
  3  4  1  0
  4  5  2  0
  5  6  1  0
  6  7  2  0
  7  8  1  0
  8  9  2  0
  9 10  1  0
  9 11  1  0
 11 12  2  0
 12 13  1  0
 12 14  1  0
 14 15  2  0
 15 16  1  0
 16 17  1  0
 17 18  2  0
 18 19  1  0
 19 20  2  0
 20 21  1  0
 21 22  2  0
 20 23  1  0
 23 24  1  0
 23 25  1  0
 23 26  1  0
 15  4  1  0
 14  7  1  0
 22 17  1  0
M  END
>  <pIC50>  (95) 
6.09

>  <ChEMBL_ID>  (95) 
CHEMBL420721

>  <document_journal>  (95) 
J. Med. Chem.

>  <bao_endpoint>  (95) 
BAO_0000190

>  <potential_duplicate>  (95) 
False

>  <uo_units>  (95) 
UO_0000065

>  <canonical_smiles>  (95) 
CCOc1ccc2nc(N)nc(N)c2c1Sc3ccc(cc3)C(C)(C)C

>  <parent_molecule_chembl_id>  (95) 
CHEMBL420721

>  <assay_type>  (95) 
B

>  <src_id>  (95) 
1

>  <ligand_efficiency>  (95) 
{u'le': u'0.32', u'bei': u'16.52', u'sei': u'5.42', u'lle': u'1.28'}

>  <standard_flag>  (95) 
True

>  <molecule_chembl_id>  (95) 
CHEMBL420721

>  <target_organism>  (95) 
Homo sapiens

>  <standard_units>  (95) 
nM

>  <record_id>  (95) 
228705

>  <document_chembl_id>  (95) 
CHEMBL1128547

>  <bao_format>  (95) 
BAO_0000357

>  <data_validity_description>  (95) 
None

>  <activity_id>  (95) 
545332

>  <standard_type>  (95) 
IC50

>  <target_chembl_id>  (95) 
CHEMBL202

>  <data_validity_comment>  (95) 
None

>  <published_value>  (95) 
0.82

>  <document_year>  (95) 
1995

>  <target_pref_name>  (95) 
Dihydrofolate reductase

>  <assay_chembl_id>  (95) 
CHEMBL669279

>  <standard_relation>  (95) 
=

>  <assay_description>  (95) 
In vitro inhibition of human dihydrofolate reductase

>  <published_relation>  (95) 
=

>  <standard_value>  (95) 
820

>  <qudt_units>  (95) 
http://www.openphacts.org/units/Nanomolar

>  <target_tax_id>  (95) 
9606

>  <bao_label>  (95) 
single protein format

>  <published_units>  (95) 
uM

>  <pchembl_value>  (95) 
6.09

>  <published_type>  (95) 
I50

>  <activity_comment>  (95) 
None

$$$$

     RDKit          

 20 22  0  0  0  0  0  0  0  0999 V2000
    0.0000    0.0000    0.0000 N   0  0  0  0  0  0  0  0  0  0  0  0
    0.0000    0.0000    0.0000 C   0  0  0  0  0  0  0  0  0  0  0  0
    0.0000    0.0000    0.0000 N   0  0  0  0  0  0  0  0  0  0  0  0
    0.0000    0.0000    0.0000 C   0  0  0  0  0  0  0  0  0  0  0  0
    0.0000    0.0000    0.0000 N   0  0  0  0  0  0  0  0  0  0  0  0
    0.0000    0.0000    0.0000 C   0  0  0  0  0  0  0  0  0  0  0  0
    0.0000    0.0000    0.0000 C   0  0  0  0  0  0  0  0  0  0  0  0
    0.0000    0.0000    0.0000 S   0  0  0  0  0  0  0  0  0  0  0  0
    0.0000    0.0000    0.0000 C   0  0  0  0  0  0  0  0  0  0  0  0
    0.0000    0.0000    0.0000 C   0  0  0  0  0  0  0  0  0  0  0  0
    0.0000    0.0000    0.0000 C   0  0  0  0  0  0  0  0  0  0  0  0
    0.0000    0.0000    0.0000 C   0  0  0  0  0  0  0  0  0  0  0  0
    0.0000    0.0000    0.0000 O   0  0  0  0  0  0  0  0  0  0  0  0
    0.0000    0.0000    0.0000 C   0  0  0  0  0  0  0  0  0  0  0  0
    0.0000    0.0000    0.0000 C   0  0  0  0  0  0  0  0  0  0  0  0
    0.0000    0.0000    0.0000 C   0  0  0  0  0  0  0  0  0  0  0  0
    0.0000    0.0000    0.0000 C   0  0  0  0  0  0  0  0  0  0  0  0
    0.0000    0.0000    0.0000 C   0  0  0  0  0  0  0  0  0  0  0  0
    0.0000    0.0000    0.0000 C   0  0  0  0  0  0  0  0  0  0  0  0
    0.0000    0.0000    0.0000 N   0  0  0  0  0  0  0  0  0  0  0  0
  1  2  1  0
  2  3  2  0
  3  4  1  0
  4  5  1  0
  4  6  2  0
  6  7  1  0
  7  8  1  0
  8  9  1  0
  9 10  2  0
 10 11  1  0
 11 12  2  0
 12 13  1  0
 12 14  1  0
 14 15  2  0
  7 16  2  0
 16 17  1  0
 17 18  2  0
 18 19  1  0
 19 20  2  0
 20  2  1  0
 19  6  1  0
 15  9  1  0
M  END
>  <pIC50>  (96) 
6.75

>  <ChEMBL_ID>  (96) 
CHEMBL123353

>  <document_journal>  (96) 
J. Med. Chem.

>  <bao_endpoint>  (96) 
BAO_0000190

>  <potential_duplicate>  (96) 
False

>  <uo_units>  (96) 
UO_0000065

>  <canonical_smiles>  (96) 
Nc1nc(N)c2c(Sc3ccc(O)cc3)cccc2n1

>  <parent_molecule_chembl_id>  (96) 
CHEMBL123353

>  <assay_type>  (96) 
B

>  <src_id>  (96) 
1

>  <ligand_efficiency>  (96) 
{u'le': u'0.46', u'bei': u'23.72', u'sei': u'5.47', u'lle': u'3.91'}

>  <standard_flag>  (96) 
True

>  <molecule_chembl_id>  (96) 
CHEMBL123353

>  <target_organism>  (96) 
Homo sapiens

>  <standard_units>  (96) 
nM

>  <record_id>  (96) 
228703

>  <document_chembl_id>  (96) 
CHEMBL1128547

>  <bao_format>  (96) 
BAO_0000357

>  <data_validity_description>  (96) 
None

>  <activity_id>  (96) 
548055

>  <standard_type>  (96) 
IC50

>  <target_chembl_id>  (96) 
CHEMBL202

>  <data_validity_comment>  (96) 
None

>  <published_value>  (96) 
0.18

>  <document_year>  (96) 
1995

>  <target_pref_name>  (96) 
Dihydrofolate reductase

>  <assay_chembl_id>  (96) 
CHEMBL669279

>  <standard_relation>  (96) 
=

>  <assay_description>  (96) 
In vitro inhibition of human dihydrofolate reductase

>  <published_relation>  (96) 
=

>  <standard_value>  (96) 
180

>  <qudt_units>  (96) 
http://www.openphacts.org/units/Nanomolar

>  <target_tax_id>  (96) 
9606

>  <bao_label>  (96) 
single protein format

>  <published_units>  (96) 
uM

>  <pchembl_value>  (96) 
6.75

>  <published_type>  (96) 
I50

>  <activity_comment>  (96) 
None

$$$$

     RDKit          

 20 22  0  0  0  0  0  0  0  0999 V2000
    0.0000    0.0000    0.0000 N   0  0  0  0  0  0  0  0  0  0  0  0
    0.0000    0.0000    0.0000 C   0  0  0  0  0  0  0  0  0  0  0  0
    0.0000    0.0000    0.0000 N   0  0  0  0  0  0  0  0  0  0  0  0
    0.0000    0.0000    0.0000 C   0  0  0  0  0  0  0  0  0  0  0  0
    0.0000    0.0000    0.0000 N   0  0  0  0  0  0  0  0  0  0  0  0
    0.0000    0.0000    0.0000 C   0  0  0  0  0  0  0  0  0  0  0  0
    0.0000    0.0000    0.0000 C   0  0  0  0  0  0  0  0  0  0  0  0
    0.0000    0.0000    0.0000 S   0  0  0  0  0  0  0  0  0  0  0  0
    0.0000    0.0000    0.0000 C   0  0  0  0  0  0  0  0  0  0  0  0
    0.0000    0.0000    0.0000 C   0  0  0  0  0  0  0  0  0  0  0  0
    0.0000    0.0000    0.0000 C   0  0  0  0  0  0  0  0  0  0  0  0
    0.0000    0.0000    0.0000 C   0  0  0  0  0  0  0  0  0  0  0  0
    0.0000    0.0000    0.0000 F   0  0  0  0  0  0  0  0  0  0  0  0
    0.0000    0.0000    0.0000 C   0  0  0  0  0  0  0  0  0  0  0  0
    0.0000    0.0000    0.0000 C   0  0  0  0  0  0  0  0  0  0  0  0
    0.0000    0.0000    0.0000 C   0  0  0  0  0  0  0  0  0  0  0  0
    0.0000    0.0000    0.0000 C   0  0  0  0  0  0  0  0  0  0  0  0
    0.0000    0.0000    0.0000 C   0  0  0  0  0  0  0  0  0  0  0  0
    0.0000    0.0000    0.0000 C   0  0  0  0  0  0  0  0  0  0  0  0
    0.0000    0.0000    0.0000 N   0  0  0  0  0  0  0  0  0  0  0  0
  1  2  1  0
  2  3  2  0
  3  4  1  0
  4  5  1  0
  4  6  2  0
  6  7  1  0
  7  8  1  0
  8  9  1  0
  9 10  2  0
 10 11  1  0
 11 12  2  0
 12 13  1  0
 12 14  1  0
 14 15  2  0
  7 16  2  0
 16 17  1  0
 17 18  2  0
 18 19  1  0
 19 20  2  0
 20  2  1  0
 19  6  1  0
 15  9  1  0
M  END
>  <pIC50>  (97) 
5.7

>  <ChEMBL_ID>  (97) 
CHEMBL121644

>  <document_journal>  (97) 
J. Med. Chem.

>  <bao_endpoint>  (97) 
BAO_0000190

>  <potential_duplicate>  (97) 
False

>  <uo_units>  (97) 
UO_0000065

>  <canonical_smiles>  (97) 
Nc1nc(N)c2c(Sc3ccc(F)cc3)cccc2n1

>  <parent_molecule_chembl_id>  (97) 
CHEMBL121644

>  <assay_type>  (97) 
B

>  <src_id>  (97) 
1

>  <ligand_efficiency>  (97) 
{u'le': u'0.39', u'bei': u'19.9', u'sei': u'5.53', u'lle': u'2.42'}

>  <standard_flag>  (97) 
True

>  <molecule_chembl_id>  (97) 
CHEMBL121644

>  <target_organism>  (97) 
Homo sapiens

>  <standard_units>  (97) 
nM

>  <record_id>  (97) 
228686

>  <document_chembl_id>  (97) 
CHEMBL1128547

>  <bao_format>  (97) 
BAO_0000357

>  <data_validity_description>  (97) 
None

>  <activity_id>  (97) 
549162

>  <standard_type>  (97) 
IC50

>  <target_chembl_id>  (97) 
CHEMBL202

>  <data_validity_comment>  (97) 
None

>  <published_value>  (97) 
2

>  <document_year>  (97) 
1995

>  <target_pref_name>  (97) 
Dihydrofolate reductase

>  <assay_chembl_id>  (97) 
CHEMBL669279

>  <standard_relation>  (97) 
=

>  <assay_description>  (97) 
In vitro inhibition of human dihydrofolate reductase

>  <published_relation>  (97) 
=

>  <standard_value>  (97) 
2000

>  <qudt_units>  (97) 
http://www.openphacts.org/units/Nanomolar

>  <target_tax_id>  (97) 
9606

>  <bao_label>  (97) 
single protein format

>  <published_units>  (97) 
uM

>  <pchembl_value>  (97) 
5.7

>  <published_type>  (97) 
I50

>  <activity_comment>  (97) 
None

$$$$

     RDKit          

 19 21  0  0  0  0  0  0  0  0999 V2000
    0.0000    0.0000    0.0000 N   0  0  0  0  0  0  0  0  0  0  0  0
    0.0000    0.0000    0.0000 C   0  0  0  0  0  0  0  0  0  0  0  0
    0.0000    0.0000    0.0000 N   0  0  0  0  0  0  0  0  0  0  0  0
    0.0000    0.0000    0.0000 C   0  0  0  0  0  0  0  0  0  0  0  0
    0.0000    0.0000    0.0000 N   0  0  0  0  0  0  0  0  0  0  0  0
    0.0000    0.0000    0.0000 C   0  0  0  0  0  0  0  0  0  0  0  0
    0.0000    0.0000    0.0000 C   0  0  0  0  0  0  0  0  0  0  0  0
    0.0000    0.0000    0.0000 S   0  0  0  0  0  0  0  0  0  0  0  0
    0.0000    0.0000    0.0000 C   0  0  0  0  0  0  0  0  0  0  0  0
    0.0000    0.0000    0.0000 C   0  0  0  0  0  0  0  0  0  0  0  0
    0.0000    0.0000    0.0000 C   0  0  0  0  0  0  0  0  0  0  0  0
    0.0000    0.0000    0.0000 C   0  0  0  0  0  0  0  0  0  0  0  0
    0.0000    0.0000    0.0000 C   0  0  0  0  0  0  0  0  0  0  0  0
    0.0000    0.0000    0.0000 C   0  0  0  0  0  0  0  0  0  0  0  0
    0.0000    0.0000    0.0000 C   0  0  0  0  0  0  0  0  0  0  0  0
    0.0000    0.0000    0.0000 C   0  0  0  0  0  0  0  0  0  0  0  0
    0.0000    0.0000    0.0000 C   0  0  0  0  0  0  0  0  0  0  0  0
    0.0000    0.0000    0.0000 C   0  0  0  0  0  0  0  0  0  0  0  0
    0.0000    0.0000    0.0000 N   0  0  0  0  0  0  0  0  0  0  0  0
  1  2  1  0
  2  3  2  0
  3  4  1  0
  4  5  1  0
  4  6  2  0
  6  7  1  0
  7  8  1  0
  8  9  1  0
  9 10  2  0
 10 11  1  0
 11 12  2  0
 12 13  1  0
 13 14  2  0
  7 15  2  0
 15 16  1  0
 16 17  2  0
 17 18  1  0
 18 19  2  0
 19  2  1  0
 18  6  1  0
 14  9  1  0
M  END
>  <pIC50>  (98) 
6.21

>  <ChEMBL_ID>  (98) 
CHEMBL100239

>  <document_journal>  (98) 
J. Med. Chem.

>  <bao_endpoint>  (98) 
BAO_0000190

>  <potential_duplicate>  (98) 
False

>  <uo_units>  (98) 
UO_0000065

>  <canonical_smiles>  (98) 
Nc1nc(N)c2c(Sc3ccccc3)cccc2n1

>  <parent_molecule_chembl_id>  (98) 
CHEMBL100239

>  <assay_type>  (98) 
B

>  <src_id>  (98) 
1

>  <ligand_efficiency>  (98) 
{u'le': u'0.45', u'bei': u'23.13', u'sei': u'6.02', u'lle': u'3.14'}

>  <standard_flag>  (98) 
True

>  <molecule_chembl_id>  (98) 
CHEMBL100239

>  <target_organism>  (98) 
Homo sapiens

>  <standard_units>  (98) 
nM

>  <record_id>  (98) 
228677

>  <document_chembl_id>  (98) 
CHEMBL1128547

>  <bao_format>  (98) 
BAO_0000357

>  <data_validity_description>  (98) 
None

>  <activity_id>  (98) 
550191

>  <standard_type>  (98) 
IC50

>  <target_chembl_id>  (98) 
CHEMBL202

>  <data_validity_comment>  (98) 
None

>  <published_value>  (98) 
0.62

>  <document_year>  (98) 
1995

>  <target_pref_name>  (98) 
Dihydrofolate reductase

>  <assay_chembl_id>  (98) 
CHEMBL669279

>  <standard_relation>  (98) 
=

>  <assay_description>  (98) 
In vitro inhibition of human dihydrofolate reductase

>  <published_relation>  (98) 
=

>  <standard_value>  (98) 
620

>  <qudt_units>  (98) 
http://www.openphacts.org/units/Nanomolar

>  <target_tax_id>  (98) 
9606

>  <bao_label>  (98) 
single protein format

>  <published_units>  (98) 
uM

>  <pchembl_value>  (98) 
6.21

>  <published_type>  (98) 
I50

>  <activity_comment>  (98) 
None

$$$$

     RDKit          

 20 22  0  0  0  0  0  0  0  0999 V2000
    0.0000    0.0000    0.0000 C   0  0  0  0  0  0  0  0  0  0  0  0
    0.0000    0.0000    0.0000 C   0  0  0  0  0  0  0  0  0  0  0  0
    0.0000    0.0000    0.0000 C   0  0  0  0  0  0  0  0  0  0  0  0
    0.0000    0.0000    0.0000 C   0  0  0  0  0  0  0  0  0  0  0  0
    0.0000    0.0000    0.0000 C   0  0  0  0  0  0  0  0  0  0  0  0
    0.0000    0.0000    0.0000 S   0  0  0  0  0  0  0  0  0  0  0  0
    0.0000    0.0000    0.0000 C   0  0  0  0  0  0  0  0  0  0  0  0
    0.0000    0.0000    0.0000 C   0  0  0  0  0  0  0  0  0  0  0  0
    0.0000    0.0000    0.0000 C   0  0  0  0  0  0  0  0  0  0  0  0
    0.0000    0.0000    0.0000 C   0  0  0  0  0  0  0  0  0  0  0  0
    0.0000    0.0000    0.0000 C   0  0  0  0  0  0  0  0  0  0  0  0
    0.0000    0.0000    0.0000 N   0  0  0  0  0  0  0  0  0  0  0  0
    0.0000    0.0000    0.0000 C   0  0  0  0  0  0  0  0  0  0  0  0
    0.0000    0.0000    0.0000 N   0  0  0  0  0  0  0  0  0  0  0  0
    0.0000    0.0000    0.0000 N   0  0  0  0  0  0  0  0  0  0  0  0
    0.0000    0.0000    0.0000 C   0  0  0  0  0  0  0  0  0  0  0  0
    0.0000    0.0000    0.0000 N   0  0  0  0  0  0  0  0  0  0  0  0
    0.0000    0.0000    0.0000 C   0  0  0  0  0  0  0  0  0  0  0  0
    0.0000    0.0000    0.0000 C   0  0  0  0  0  0  0  0  0  0  0  0
    0.0000    0.0000    0.0000 C   0  0  0  0  0  0  0  0  0  0  0  0
  1  2  1  0
  2  3  2  0
  3  4  1  0
  4  5  2  0
  5  6  1  0
  6  7  1  0
  7  8  2  0
  8  9  1  0
  9 10  2  0
 10 11  1  0
 11 12  2  0
 12 13  1  0
 13 14  1  0
 13 15  2  0
 15 16  1  0
 16 17  1  0
 16 18  2  0
  5 19  1  0
 19 20  2  0
 20  2  1  0
 18  7  1  0
 18 11  1  0
M  END
>  <pIC50>  (99) 
6.03

>  <ChEMBL_ID>  (99) 
CHEMBL83547

>  <document_journal>  (99) 
J. Med. Chem.

>  <bao_endpoint>  (99) 
BAO_0000190

>  <potential_duplicate>  (99) 
False

>  <uo_units>  (99) 
UO_0000065

>  <canonical_smiles>  (99) 
Cc1ccc(Sc2cccc3nc(N)nc(N)c23)cc1

>  <parent_molecule_chembl_id>  (99) 
CHEMBL83547

>  <assay_type>  (99) 
B

>  <src_id>  (99) 
1

>  <ligand_efficiency>  (99) 
{u'le': u'0.41', u'bei': u'21.34', u'sei': u'5.85', u'lle': u'2.47'}

>  <standard_flag>  (99) 
True

>  <molecule_chembl_id>  (99) 
CHEMBL83547

>  <target_organism>  (99) 
Homo sapiens

>  <standard_units>  (99) 
nM

>  <record_id>  (99) 
228678

>  <document_chembl_id>  (99) 
CHEMBL1128547

>  <bao_format>  (99) 
BAO_0000357

>  <data_validity_description>  (99) 
None

>  <activity_id>  (99) 
550195

>  <standard_type>  (99) 
IC50

>  <target_chembl_id>  (99) 
CHEMBL202

>  <data_validity_comment>  (99) 
None

>  <published_value>  (99) 
0.94

>  <document_year>  (99) 
1995

>  <target_pref_name>  (99) 
Dihydrofolate reductase

>  <assay_chembl_id>  (99) 
CHEMBL669279

>  <standard_relation>  (99) 
=

>  <assay_description>  (99) 
In vitro inhibition of human dihydrofolate reductase

>  <published_relation>  (99) 
=

>  <standard_value>  (99) 
940

>  <qudt_units>  (99) 
http://www.openphacts.org/units/Nanomolar

>  <target_tax_id>  (99) 
9606

>  <bao_label>  (99) 
single protein format

>  <published_units>  (99) 
uM

>  <pchembl_value>  (99) 
6.03

>  <published_type>  (99) 
I50

>  <activity_comment>  (99) 
None

$$$$

     RDKit          

 24 26  0  0  0  0  0  0  0  0999 V2000
    0.0000    0.0000    0.0000 C   0  0  0  0  0  0  0  0  0  0  0  0
    0.0000    0.0000    0.0000 C   0  0  0  0  0  0  0  0  0  0  0  0
    0.0000    0.0000    0.0000 C   0  0  0  0  0  0  0  0  0  0  0  0
    0.0000    0.0000    0.0000 C   0  0  0  0  0  0  0  0  0  0  0  0
    0.0000    0.0000    0.0000 C   0  0  0  0  0  0  0  0  0  0  0  0
    0.0000    0.0000    0.0000 C   0  0  0  0  0  0  0  0  0  0  0  0
    0.0000    0.0000    0.0000 C   0  0  0  0  0  0  0  0  0  0  0  0
    0.0000    0.0000    0.0000 C   0  0  0  0  0  0  0  0  0  0  0  0
    0.0000    0.0000    0.0000 C   0  0  0  0  0  0  0  0  0  0  0  0
    0.0000    0.0000    0.0000 S   0  0  0  0  0  0  0  0  0  0  0  0
    0.0000    0.0000    0.0000 C   0  0  0  0  0  0  0  0  0  0  0  0
    0.0000    0.0000    0.0000 C   0  0  0  0  0  0  0  0  0  0  0  0
    0.0000    0.0000    0.0000 C   0  0  0  0  0  0  0  0  0  0  0  0
    0.0000    0.0000    0.0000 C   0  0  0  0  0  0  0  0  0  0  0  0
    0.0000    0.0000    0.0000 C   0  0  0  0  0  0  0  0  0  0  0  0
    0.0000    0.0000    0.0000 N   0  0  0  0  0  0  0  0  0  0  0  0
    0.0000    0.0000    0.0000 C   0  0  0  0  0  0  0  0  0  0  0  0
    0.0000    0.0000    0.0000 N   0  0  0  0  0  0  0  0  0  0  0  0
    0.0000    0.0000    0.0000 N   0  0  0  0  0  0  0  0  0  0  0  0
    0.0000    0.0000    0.0000 C   0  0  0  0  0  0  0  0  0  0  0  0
    0.0000    0.0000    0.0000 N   0  0  0  0  0  0  0  0  0  0  0  0
    0.0000    0.0000    0.0000 C   0  0  0  0  0  0  0  0  0  0  0  0
    0.0000    0.0000    0.0000 C   0  0  0  0  0  0  0  0  0  0  0  0
    0.0000    0.0000    0.0000 C   0  0  0  0  0  0  0  0  0  0  0  0
  1  2  1  0
  2  3  1  0
  3  4  1  0
  3  5  1  0
  3  6  1  0
  6  7  2  0
  7  8  1  0
  8  9  2  0
  9 10  1  0
 10 11  1  0
 11 12  2  0
 12 13  1  0
 13 14  2  0
 14 15  1  0
 15 16  2  0
 16 17  1  0
 17 18  1  0
 17 19  2  0
 19 20  1  0
 20 21  1  0
 20 22  2  0
  9 23  1  0
 23 24  2  0
 24  6  1  0
 22 11  1  0
 22 15  1  0
M  END
>  <pIC50>  (100) 
5.41

>  <ChEMBL_ID>  (100) 
CHEMBL123061

>  <document_journal>  (100) 
J. Med. Chem.

>  <bao_endpoint>  (100) 
BAO_0000190

>  <potential_duplicate>  (100) 
False

>  <uo_units>  (100) 
UO_0000065

>  <canonical_smiles>  (100) 
CCC(C)(C)c1ccc(Sc2cccc3nc(N)nc(N)c23)cc1

>  <parent_molecule_chembl_id>  (100) 
CHEMBL123061

>  <assay_type>  (100) 
B

>  <src_id>  (100) 
1

>  <ligand_efficiency>  (100) 
{u'le': u'0.31', u'bei': u'15.98', u'sei': u'5.25', u'lle': u'0.48'}

>  <standard_flag>  (100) 
True

>  <molecule_chembl_id>  (100) 
CHEMBL123061

>  <target_organism>  (100) 
Homo sapiens

>  <standard_units>  (100) 
nM

>  <record_id>  (100) 
228708

>  <document_chembl_id>  (100) 
CHEMBL1128547

>  <bao_format>  (100) 
BAO_0000357

>  <data_validity_description>  (100) 
None

>  <activity_id>  (100) 
551403

>  <standard_type>  (100) 
IC50

>  <target_chembl_id>  (100) 
CHEMBL202

>  <data_validity_comment>  (100) 
None

>  <published_value>  (100) 
3.9

>  <document_year>  (100) 
1995

>  <target_pref_name>  (100) 
Dihydrofolate reductase

>  <assay_chembl_id>  (100) 
CHEMBL669279

>  <standard_relation>  (100) 
=

>  <assay_description>  (100) 
In vitro inhibition of human dihydrofolate reductase

>  <published_relation>  (100) 
=

>  <standard_value>  (100) 
3900

>  <qudt_units>  (100) 
http://www.openphacts.org/units/Nanomolar

>  <target_tax_id>  (100) 
9606

>  <bao_label>  (100) 
single protein format

>  <published_units>  (100) 
uM

>  <pchembl_value>  (100) 
5.41

>  <published_type>  (100) 
I50

>  <activity_comment>  (100) 
None

$$$$

     RDKit          

 25 27  0  0  0  0  0  0  0  0999 V2000
    0.0000    0.0000    0.0000 C   0  0  0  0  0  0  0  0  0  0  0  0
    0.0000    0.0000    0.0000 C   0  0  0  0  0  0  0  0  0  0  0  0
    0.0000    0.0000    0.0000 C   0  0  0  0  0  0  0  0  0  0  0  0
    0.0000    0.0000    0.0000 C   0  0  0  0  0  0  0  0  0  0  0  0
    0.0000    0.0000    0.0000 C   0  0  0  0  0  0  0  0  0  0  0  0
    0.0000    0.0000    0.0000 C   0  0  0  0  0  0  0  0  0  0  0  0
    0.0000    0.0000    0.0000 C   0  0  0  0  0  0  0  0  0  0  0  0
    0.0000    0.0000    0.0000 C   0  0  0  0  0  0  0  0  0  0  0  0
    0.0000    0.0000    0.0000 S   0  0  0  0  0  0  0  0  0  0  0  0
    0.0000    0.0000    0.0000 C   0  0  0  0  0  0  0  0  0  0  0  0
    0.0000    0.0000    0.0000 C   0  0  0  0  0  0  0  0  0  0  0  0
    0.0000    0.0000    0.0000 C   0  0  0  0  0  0  0  0  0  0  0  0
    0.0000    0.0000    0.0000 C   0  0  0  0  0  0  0  0  0  0  0  0
    0.0000    0.0000    0.0000 C   0  0  0  0  0  0  0  0  0  0  0  0
    0.0000    0.0000    0.0000 N   0  0  0  0  0  0  0  0  0  0  0  0
    0.0000    0.0000    0.0000 C   0  0  0  0  0  0  0  0  0  0  0  0
    0.0000    0.0000    0.0000 N   0  0  0  0  0  0  0  0  0  0  0  0
    0.0000    0.0000    0.0000 N   0  0  0  0  0  0  0  0  0  0  0  0
    0.0000    0.0000    0.0000 C   0  0  0  0  0  0  0  0  0  0  0  0
    0.0000    0.0000    0.0000 N   0  0  0  0  0  0  0  0  0  0  0  0
    0.0000    0.0000    0.0000 C   0  0  0  0  0  0  0  0  0  0  0  0
    0.0000    0.0000    0.0000 C   0  0  0  0  0  0  0  0  0  0  0  0
    0.0000    0.0000    0.0000 N   0  0  0  0  0  0  0  0  0  0  0  0
    0.0000    0.0000    0.0000 C   0  0  0  0  0  0  0  0  0  0  0  0
    0.0000    0.0000    0.0000 C   0  0  0  0  0  0  0  0  0  0  0  0
  1  2  1  0
  2  3  1  0
  2  4  1  0
  2  5  1  0
  5  6  2  0
  6  7  1  0
  7  8  2  0
  8  9  1  0
  9 10  1  0
 10 11  2  0
 11 12  1  0
 12 13  2  0
 13 14  1  0
 14 15  2  0
 15 16  1  0
 16 17  1  0
 16 18  2  0
 18 19  1  0
 19 20  1  0
 19 21  2  0
 11 22  1  0
 22 23  3  0
  8 24  1  0
 24 25  2  0
 25  5  1  0
 21 10  1  0
 21 14  1  0
M  END
>  <pIC50>  (101) 
5.04

>  <ChEMBL_ID>  (101) 
CHEMBL122628

>  <document_journal>  (101) 
J. Med. Chem.

>  <bao_endpoint>  (101) 
BAO_0000190

>  <potential_duplicate>  (101) 
False

>  <uo_units>  (101) 
UO_0000065

>  <canonical_smiles>  (101) 
CC(C)(C)c1ccc(Sc2c(ccc3nc(N)nc(N)c23)C#N)cc1

>  <parent_molecule_chembl_id>  (101) 
CHEMBL122628

>  <assay_type>  (101) 
B

>  <src_id>  (101) 
1

>  <ligand_efficiency>  (101) 
{u'le': u'0.28', u'bei': u'14.43', u'sei': u'3.97', u'lle': u'0.69'}

>  <standard_flag>  (101) 
True

>  <molecule_chembl_id>  (101) 
CHEMBL122628

>  <target_organism>  (101) 
Homo sapiens

>  <standard_units>  (101) 
nM

>  <record_id>  (101) 
228706

>  <document_chembl_id>  (101) 
CHEMBL1128547

>  <bao_format>  (101) 
BAO_0000357

>  <data_validity_description>  (101) 
None

>  <activity_id>  (101) 
552740

>  <standard_type>  (101) 
IC50

>  <target_chembl_id>  (101) 
CHEMBL202

>  <data_validity_comment>  (101) 
None

>  <published_value>  (101) 
9.1

>  <document_year>  (101) 
1995

>  <target_pref_name>  (101) 
Dihydrofolate reductase

>  <assay_chembl_id>  (101) 
CHEMBL669279

>  <standard_relation>  (101) 
=

>  <assay_description>  (101) 
In vitro inhibition of human dihydrofolate reductase

>  <published_relation>  (101) 
=

>  <standard_value>  (101) 
9100

>  <qudt_units>  (101) 
http://www.openphacts.org/units/Nanomolar

>  <target_tax_id>  (101) 
9606

>  <bao_label>  (101) 
single protein format

>  <published_units>  (101) 
uM

>  <pchembl_value>  (101) 
5.04

>  <published_type>  (101) 
I50

>  <activity_comment>  (101) 
None

$$$$

     RDKit          

 32 34  0  0  0  0  0  0  0  0999 V2000
    0.0000    0.0000    0.0000 C   0  0  0  0  0  0  0  0  0  0  0  0
    0.0000    0.0000    0.0000 C   0  0  0  0  0  0  0  0  0  0  0  0
    0.0000    0.0000    0.0000 C   0  0  0  0  0  0  0  0  0  0  0  0
    0.0000    0.0000    0.0000 C   0  0  0  0  0  0  0  0  0  0  0  0
    0.0000    0.0000    0.0000 C   0  0  0  0  0  0  0  0  0  0  0  0
    0.0000    0.0000    0.0000 O   0  0  0  0  0  0  0  0  0  0  0  0
    0.0000    0.0000    0.0000 C   0  0  0  0  0  0  0  0  0  0  0  0
    0.0000    0.0000    0.0000 N   0  0  0  0  0  0  0  0  0  0  0  0
    0.0000    0.0000    0.0000 C   0  0  0  0  0  0  0  0  0  0  0  0
    0.0000    0.0000    0.0000 N   0  0  0  0  0  0  0  0  0  0  0  0
    0.0000    0.0000    0.0000 C   0  0  0  0  0  0  0  0  0  0  0  0
    0.0000    0.0000    0.0000 C   0  0  0  0  0  0  0  0  0  0  0  0
    0.0000    0.0000    0.0000 N   0  0  0  0  0  0  0  0  0  0  0  0
    0.0000    0.0000    0.0000 C   0  0  0  0  0  0  0  0  0  0  0  0
    0.0000    0.0000    0.0000 C   0  0  0  0  0  0  0  0  0  0  0  0
    0.0000    0.0000    0.0000 C   0  0  0  0  0  0  0  0  0  0  0  0
    0.0000    0.0000    0.0000 C   0  0  0  0  0  0  0  0  0  0  0  0
    0.0000    0.0000    0.0000 C   0  0  0  0  0  0  0  0  0  0  0  0
    0.0000    0.0000    0.0000 C   0  0  0  0  0  0  0  0  0  0  0  0
    0.0000    0.0000    0.0000 C   0  0  0  0  0  0  0  0  0  0  0  0
    0.0000    0.0000    0.0000 C   0  0  0  0  0  0  0  0  0  0  0  0
    0.0000    0.0000    0.0000 O   0  0  0  0  0  0  0  0  0  0  0  0
    0.0000    0.0000    0.0000 N   0  0  0  0  0  0  0  0  0  0  0  0
    0.0000    0.0000    0.0000 C   0  0  0  0  0  0  0  0  0  0  0  0
    0.0000    0.0000    0.0000 C   0  0  0  0  0  0  0  0  0  0  0  0
    0.0000    0.0000    0.0000 C   0  0  0  0  0  0  0  0  0  0  0  0
    0.0000    0.0000    0.0000 C   0  0  0  0  0  0  0  0  0  0  0  0
    0.0000    0.0000    0.0000 O   0  0  0  0  0  0  0  0  0  0  0  0
    0.0000    0.0000    0.0000 O   0  0  0  0  0  0  0  0  0  0  0  0
    0.0000    0.0000    0.0000 C   0  0  0  0  0  0  0  0  0  0  0  0
    0.0000    0.0000    0.0000 O   0  0  0  0  0  0  0  0  0  0  0  0
    0.0000    0.0000    0.0000 O   0  0  0  0  0  0  0  0  0  0  0  0
  1  2  1  0
  2  3  1  0
  3  4  1  0
  4  5  2  0
  5  6  1  0
  6  7  1  0
  7  8  2  0
  8  9  1  0
  9 10  1  0
  9 11  2  0
 11 12  1  0
 12 13  1  0
 12 14  2  0
  2 15  1  0
 15 16  2  0
 16 17  1  0
 17 18  2  0
 18 19  1  0
 19 20  2  0
 18 21  1  0
 21 22  2  0
 21 23  1  0
 23 24  1  0
 24 25  1  0
 25 26  1  0
 26 27  1  0
 27 28  2  0
 27 29  1  0
 24 30  1  0
 30 31  2  0
 30 32  1  0
 14  4  1  0
 14  7  1  0
 20 15  1  0
M  END
>  <pIC50>  (102) 
6.38

>  <ChEMBL_ID>  (102) 
CHEMBL60639

>  <document_journal>  (102) 
J. Med. Chem.

>  <bao_endpoint>  (102) 
BAO_0000190

>  <potential_duplicate>  (102) 
False

>  <uo_units>  (102) 
UO_0000065

>  <canonical_smiles>  (102) 
CC(Cc1coc2nc(N)cc(N)c12)c3ccc(cc3)C(=O)NC(CCC(=O)O)C(=O)O

>  <parent_molecule_chembl_id>  (102) 
CHEMBL60639

>  <assay_type>  (102) 
B

>  <src_id>  (102) 
1

>  <ligand_efficiency>  (102) 
{u'le': u'0.27', u'bei': u'14.48', u'sei': u'3.51', u'lle': u'4.59'}

>  <standard_flag>  (102) 
True

>  <molecule_chembl_id>  (102) 
CHEMBL60639

>  <target_organism>  (102) 
Homo sapiens

>  <standard_units>  (102) 
nM

>  <record_id>  (102) 
100838

>  <document_chembl_id>  (102) 
CHEMBL1135938

>  <bao_format>  (102) 
BAO_0000357

>  <data_validity_description>  (102) 
None

>  <activity_id>  (102) 
600779

>  <standard_type>  (102) 
IC50

>  <target_chembl_id>  (102) 
CHEMBL202

>  <data_validity_comment>  (102) 
None

>  <published_value>  (102) 
0.42

>  <document_year>  (102) 
2002

>  <target_pref_name>  (102) 
Dihydrofolate reductase

>  <assay_chembl_id>  (102) 
CHEMBL668435

>  <standard_relation>  (102) 
=

>  <assay_description>  (102) 
Inhibition of rh dihydrofolate reductase (DHFR)

>  <published_relation>  (102) 
=

>  <standard_value>  (102) 
420

>  <qudt_units>  (102) 
http://www.openphacts.org/units/Nanomolar

>  <target_tax_id>  (102) 
9606

>  <bao_label>  (102) 
single protein format

>  <published_units>  (102) 
uM

>  <pchembl_value>  (102) 
6.38

>  <published_type>  (102) 
IC50

>  <activity_comment>  (102) 
None

$$$$

     RDKit          

 42 45  0  0  0  0  0  0  0  0999 V2000
    0.0000    0.0000    0.0000 C   0  0  0  0  0  0  0  0  0  0  0  0
    0.0000    0.0000    0.0000 N   0  0  0  0  0  0  0  0  0  0  0  0
    0.0000    0.0000    0.0000 C   0  0  0  0  0  0  0  0  0  0  0  0
    0.0000    0.0000    0.0000 C   0  0  0  0  0  0  0  0  0  0  0  0
    0.0000    0.0000    0.0000 C   0  0  0  0  0  0  0  0  0  0  0  0
    0.0000    0.0000    0.0000 N   0  0  0  0  0  0  0  0  0  0  0  0
    0.0000    0.0000    0.0000 C   0  0  0  0  0  0  0  0  0  0  0  0
    0.0000    0.0000    0.0000 N   0  0  0  0  0  0  0  0  0  0  0  0
    0.0000    0.0000    0.0000 C   0  0  0  0  0  0  0  0  0  0  0  0
    0.0000    0.0000    0.0000 N   0  0  0  0  0  0  0  0  0  0  0  0
    0.0000    0.0000    0.0000 N   0  0  0  0  0  0  0  0  0  0  0  0
    0.0000    0.0000    0.0000 C   0  0  0  0  0  0  0  0  0  0  0  0
    0.0000    0.0000    0.0000 N   0  0  0  0  0  0  0  0  0  0  0  0
    0.0000    0.0000    0.0000 C   0  0  0  0  0  0  0  0  0  0  0  0
    0.0000    0.0000    0.0000 N   0  0  0  0  0  0  0  0  0  0  0  0
    0.0000    0.0000    0.0000 C   0  0  0  0  0  0  0  0  0  0  0  0
    0.0000    0.0000    0.0000 C   0  0  0  0  0  0  0  0  0  0  0  0
    0.0000    0.0000    0.0000 C   0  0  0  0  0  0  0  0  0  0  0  0
    0.0000    0.0000    0.0000 C   0  0  0  0  0  0  0  0  0  0  0  0
    0.0000    0.0000    0.0000 C   0  0  0  0  0  0  0  0  0  0  0  0
    0.0000    0.0000    0.0000 C   0  0  0  0  0  0  0  0  0  0  0  0
    0.0000    0.0000    0.0000 C   0  0  0  0  0  0  0  0  0  0  0  0
    0.0000    0.0000    0.0000 O   0  0  0  0  0  0  0  0  0  0  0  0
    0.0000    0.0000    0.0000 N   0  0  0  0  0  0  0  0  0  0  0  0
    0.0000    0.0000    0.0000 C   0  0  0  0  0  0  0  0  0  0  0  0
    0.0000    0.0000    0.0000 C   0  0  0  0  0  0  0  0  0  0  0  0
    0.0000    0.0000    0.0000 C   0  0  0  0  0  0  0  0  0  0  0  0
    0.0000    0.0000    0.0000 C   0  0  0  0  0  0  0  0  0  0  0  0
    0.0000    0.0000    0.0000 O   0  0  0  0  0  0  0  0  0  0  0  0
    0.0000    0.0000    0.0000 N   0  0  0  0  0  0  0  0  0  0  0  0
    0.0000    0.0000    0.0000 C   0  0  0  0  0  0  0  0  0  0  0  0
    0.0000    0.0000    0.0000 C   0  0  0  0  0  0  0  0  0  0  0  0
    0.0000    0.0000    0.0000 C   0  0  0  0  0  0  0  0  0  0  0  0
    0.0000    0.0000    0.0000 C   0  0  0  0  0  0  0  0  0  0  0  0
    0.0000    0.0000    0.0000 C   0  0  0  0  0  0  0  0  0  0  0  0
    0.0000    0.0000    0.0000 C   0  0  0  0  0  0  0  0  0  0  0  0
    0.0000    0.0000    0.0000 C   0  0  0  0  0  0  0  0  0  0  0  0
    0.0000    0.0000    0.0000 O   0  0  0  0  0  0  0  0  0  0  0  0
    0.0000    0.0000    0.0000 O   0  0  0  0  0  0  0  0  0  0  0  0
    0.0000    0.0000    0.0000 C   0  0  0  0  0  0  0  0  0  0  0  0
    0.0000    0.0000    0.0000 O   0  0  0  0  0  0  0  0  0  0  0  0
    0.0000    0.0000    0.0000 O   0  0  0  0  0  0  0  0  0  0  0  0
  1  2  1  0
  2  3  1  0
  3  4  1  0
  4  5  2  0
  5  6  1  0
  6  7  2  0
  7  8  1  0
  8  9  2  0
  9 10  1  0
  9 11  1  0
 11 12  2  0
 12 13  1  0
 12 14  1  0
 14 15  2  0
  2 16  1  0
 16 17  2  0
 17 18  1  0
 18 19  2  0
 19 20  1  0
 20 21  2  0
 19 22  1  0
 22 23  2  0
 22 24  1  0
 24 25  1  0
 25 26  1  0
 26 27  1  0
 27 28  1  0
 28 29  2  0
 28 30  1  0
 30 31  1  0
 31 32  2  0
 32 33  1  0
 33 34  2  0
 34 35  1  0
 35 36  2  0
 35 37  1  0
 37 38  2  0
 37 39  1  0
 25 40  1  0
 40 41  2  0
 40 42  1  0
 15  4  1  0
 14  7  1  0
 21 16  1  0
 36 31  1  0
M  END
>  <pIC50>  (103) 
7.46

>  <ChEMBL_ID>  (103) 
CHEMBL155023

>  <document_journal>  (103) 
J. Med. Chem.

>  <bao_endpoint>  (103) 
BAO_0000190

>  <potential_duplicate>  (103) 
False

>  <uo_units>  (103) 
UO_0000065

>  <canonical_smiles>  (103) 
CN(Cc1cnc2nc(N)nc(N)c2n1)c3ccc(cc3)C(=O)NC(CCC(=O)Nc4cccc(c4)C(=O)O)C(=O)O

>  <parent_molecule_chembl_id>  (103) 
CHEMBL155023

>  <assay_type>  (103) 
B

>  <src_id>  (103) 
1

>  <ligand_efficiency>  (103) 
{u'le': u'0.24', u'bei': u'13', u'sei': u'3.11', u'lle': u'6.56'}

>  <standard_flag>  (103) 
True

>  <molecule_chembl_id>  (103) 
CHEMBL155023

>  <target_organism>  (103) 
Homo sapiens

>  <standard_units>  (103) 
nM

>  <record_id>  (103) 
301765

>  <document_chembl_id>  (103) 
CHEMBL1125236

>  <bao_format>  (103) 
BAO_0000019

>  <data_validity_description>  (103) 
None

>  <activity_id>  (103) 
602212

>  <standard_type>  (103) 
IC50

>  <target_chembl_id>  (103) 
CHEMBL202

>  <data_validity_comment>  (103) 
None

>  <published_value>  (103) 
35

>  <document_year>  (103) 
1991

>  <target_pref_name>  (103) 
Dihydrofolate reductase

>  <assay_chembl_id>  (103) 
CHEMBL668432

>  <standard_relation>  (103) 
=

>  <assay_description>  (103) 
Inhibition of dihydrofolate reductase (DHFR) from human cells (WI-L2/M4).

>  <published_relation>  (103) 
=

>  <standard_value>  (103) 
35

>  <qudt_units>  (103) 
http://www.openphacts.org/units/Nanomolar

>  <target_tax_id>  (103) 
9606

>  <bao_label>  (103) 
assay format

>  <published_units>  (103) 
nM

>  <pchembl_value>  (103) 
7.46

>  <published_type>  (103) 
IC50

>  <activity_comment>  (103) 
None

$$$$

     RDKit          

 31 33  0  0  0  0  0  0  0  0999 V2000
    0.0000    0.0000    0.0000 N   0  0  0  0  0  0  0  0  0  0  0  0
    0.0000    0.0000    0.0000 C   0  0  0  0  0  0  0  0  0  0  0  0
    0.0000    0.0000    0.0000 C   0  0  0  0  0  0  0  0  0  0  0  0
    0.0000    0.0000    0.0000 C   0  0  0  0  0  0  0  0  0  0  0  0
    0.0000    0.0000    0.0000 N   0  0  0  0  0  0  0  0  0  0  0  0
    0.0000    0.0000    0.0000 C   0  0  0  0  0  0  0  0  0  0  0  0
    0.0000    0.0000    0.0000 C   0  0  0  0  0  0  0  0  0  0  0  0
    0.0000    0.0000    0.0000 C   0  0  0  0  0  0  0  0  0  0  0  0
    0.0000    0.0000    0.0000 C   0  0  0  0  0  0  0  0  0  0  0  0
    0.0000    0.0000    0.0000 C   0  0  0  0  0  0  0  0  0  0  0  0
    0.0000    0.0000    0.0000 C   0  0  0  0  0  0  0  0  0  0  0  0
    0.0000    0.0000    0.0000 C   0  0  0  0  0  0  0  0  0  0  0  0
    0.0000    0.0000    0.0000 C   0  0  0  0  0  0  0  0  0  0  0  0
    0.0000    0.0000    0.0000 C   0  0  0  0  0  0  0  0  0  0  0  0
    0.0000    0.0000    0.0000 C   0  0  0  0  0  0  0  0  0  0  0  0
    0.0000    0.0000    0.0000 C   0  0  0  0  0  0  0  0  0  0  0  0
    0.0000    0.0000    0.0000 O   0  0  0  0  0  0  0  0  0  0  0  0
    0.0000    0.0000    0.0000 N   0  0  0  0  0  0  0  0  0  0  0  0
    0.0000    0.0000    0.0000 C   0  0  0  0  0  0  0  0  0  0  0  0
    0.0000    0.0000    0.0000 C   0  0  0  0  0  0  0  0  0  0  0  0
    0.0000    0.0000    0.0000 C   0  0  0  0  0  0  0  0  0  0  0  0
    0.0000    0.0000    0.0000 C   0  0  0  0  0  0  0  0  0  0  0  0
    0.0000    0.0000    0.0000 O   0  0  0  0  0  0  0  0  0  0  0  0
    0.0000    0.0000    0.0000 O   0  0  0  0  0  0  0  0  0  0  0  0
    0.0000    0.0000    0.0000 C   0  0  0  0  0  0  0  0  0  0  0  0
    0.0000    0.0000    0.0000 O   0  0  0  0  0  0  0  0  0  0  0  0
    0.0000    0.0000    0.0000 O   0  0  0  0  0  0  0  0  0  0  0  0
    0.0000    0.0000    0.0000 C   0  0  0  0  0  0  0  0  0  0  0  0
    0.0000    0.0000    0.0000 O   0  0  0  0  0  0  0  0  0  0  0  0
    0.0000    0.0000    0.0000 C   0  0  0  0  0  0  0  0  0  0  0  0
    0.0000    0.0000    0.0000 N   0  0  0  0  0  0  0  0  0  0  0  0
  1  2  1  0
  2  3  2  0
  3  4  1  0
  4  5  1  0
  4  6  2  0
  6  7  1  0
  7  8  1  0
  8  9  1  0
  9 10  1  0
 10 11  2  0
 11 12  1  0
 12 13  2  0
 13 14  1  0
 14 15  2  0
 13 16  1  0
 16 17  2  0
 16 18  1  0
 18 19  1  0
 19 20  1  0
 20 21  1  0
 21 22  1  0
 22 23  2  0
 22 24  1  0
 19 25  1  0
 25 26  2  0
 25 27  1  0
  7 28  2  0
 28 29  1  0
 29 30  1  0
 30 31  2  0
 31  2  1  0
 30  6  1  0
 15 10  1  0
M  END
>  <pIC50>  (104) 
6.0

>  <ChEMBL_ID>  (104) 
CHEMBL57444

>  <document_journal>  (104) 
J. Med. Chem.

>  <bao_endpoint>  (104) 
BAO_0000190

>  <potential_duplicate>  (104) 
False

>  <uo_units>  (104) 
UO_0000065

>  <canonical_smiles>  (104) 
Nc1cc(N)c2c(CCc3ccc(cc3)C(=O)NC(CCC(=O)O)C(=O)O)coc2n1

>  <parent_molecule_chembl_id>  (104) 
CHEMBL57444

>  <assay_type>  (104) 
B

>  <src_id>  (104) 
1

>  <ligand_efficiency>  (104) 
{u'le': u'0.26', u'bei': u'14.07', u'sei': u'3.3', u'lle': u'4.47'}

>  <standard_flag>  (104) 
True

>  <molecule_chembl_id>  (104) 
CHEMBL57444

>  <target_organism>  (104) 
Homo sapiens

>  <standard_units>  (104) 
nM

>  <record_id>  (104) 
100839

>  <document_chembl_id>  (104) 
CHEMBL1135938

>  <bao_format>  (104) 
BAO_0000357

>  <data_validity_description>  (104) 
None

>  <activity_id>  (104) 
605824

>  <standard_type>  (104) 
IC50

>  <target_chembl_id>  (104) 
CHEMBL202

>  <data_validity_comment>  (104) 
None

>  <published_value>  (104) 
1

>  <document_year>  (104) 
2002

>  <target_pref_name>  (104) 
Dihydrofolate reductase

>  <assay_chembl_id>  (104) 
CHEMBL668435

>  <standard_relation>  (104) 
=

>  <assay_description>  (104) 
Inhibition of rh dihydrofolate reductase (DHFR)

>  <published_relation>  (104) 
=

>  <standard_value>  (104) 
1000

>  <qudt_units>  (104) 
http://www.openphacts.org/units/Nanomolar

>  <target_tax_id>  (104) 
9606

>  <bao_label>  (104) 
single protein format

>  <published_units>  (104) 
uM

>  <pchembl_value>  (104) 
6

>  <published_type>  (104) 
IC50

>  <activity_comment>  (104) 
None

$$$$

     RDKit          

 34 36  0  0  0  0  0  0  0  0999 V2000
    0.0000    0.0000    0.0000 N   0  0  0  0  0  0  0  0  0  0  0  0
    0.0000    0.0000    0.0000 C   0  0  0  0  0  0  0  0  0  0  0  0
    0.0000    0.0000    0.0000 N   0  0  0  0  0  0  0  0  0  0  0  0
    0.0000    0.0000    0.0000 C   0  0  0  0  0  0  0  0  0  0  0  0
    0.0000    0.0000    0.0000 N   0  0  0  0  0  0  0  0  0  0  0  0
    0.0000    0.0000    0.0000 C   0  0  0  0  0  0  0  0  0  0  0  0
    0.0000    0.0000    0.0000 N   0  0  0  0  0  0  0  0  0  0  0  0
    0.0000    0.0000    0.0000 C   0  0  0  0  0  0  0  0  0  0  0  0
    0.0000    0.0000    0.0000 C   0  0  0  0  0  0  0  0  0  0  0  0
    0.0000    0.0000    0.0000 O   0  0  0  0  0  0  0  0  0  0  0  0
    0.0000    0.0000    0.0000 C   0  0  0  0  0  0  0  0  0  0  0  0
    0.0000    0.0000    0.0000 O   0  0  0  0  0  0  0  0  0  0  0  0
    0.0000    0.0000    0.0000 C   0  0  0  0  0  0  0  0  0  0  0  0
    0.0000    0.0000    0.0000 C   0  0  0  0  0  0  0  0  0  0  0  0
    0.0000    0.0000    0.0000 C   0  0  0  0  0  0  0  0  0  0  0  0
    0.0000    0.0000    0.0000 C   0  0  0  0  0  0  0  0  0  0  0  0
    0.0000    0.0000    0.0000 C   0  0  0  0  0  0  0  0  0  0  0  0
    0.0000    0.0000    0.0000 C   0  0  0  0  0  0  0  0  0  0  0  0
    0.0000    0.0000    0.0000 C   0  0  0  0  0  0  0  0  0  0  0  0
    0.0000    0.0000    0.0000 O   0  0  0  0  0  0  0  0  0  0  0  0
    0.0000    0.0000    0.0000 N   0  0  0  0  0  0  0  0  0  0  0  0
    0.0000    0.0000    0.0000 C   0  0  0  0  0  0  0  0  0  0  0  0
    0.0000    0.0000    0.0000 C   0  0  0  0  0  0  0  0  0  0  0  0
    0.0000    0.0000    0.0000 C   0  0  0  0  0  0  0  0  0  0  0  0
    0.0000    0.0000    0.0000 C   0  0  0  0  0  0  0  0  0  0  0  0
    0.0000    0.0000    0.0000 O   0  0  0  0  0  0  0  0  0  0  0  0
    0.0000    0.0000    0.0000 O   0  0  0  0  0  0  0  0  0  0  0  0
    0.0000    0.0000    0.0000 C   0  0  0  0  0  0  0  0  0  0  0  0
    0.0000    0.0000    0.0000 O   0  0  0  0  0  0  0  0  0  0  0  0
    0.0000    0.0000    0.0000 O   0  0  0  0  0  0  0  0  0  0  0  0
    0.0000    0.0000    0.0000 C   0  0  0  0  0  0  0  0  0  0  0  0
    0.0000    0.0000    0.0000 N   0  0  0  0  0  0  0  0  0  0  0  0
    0.0000    0.0000    0.0000 C   0  0  0  0  0  0  0  0  0  0  0  0
    0.0000    0.0000    0.0000 N   0  0  0  0  0  0  0  0  0  0  0  0
  1  2  1  0
  2  3  2  0
  3  4  1  0
  4  5  1  0
  4  6  2  0
  6  7  1  0
  7  8  2  0
  8  9  1  0
  9 10  1  0
 10 11  1  0
 11 12  2  0
 11 13  1  0
 13 14  2  0
 14 15  1  0
 15 16  2  0
 16 17  1  0
 17 18  2  0
 16 19  1  0
 19 20  2  0
 19 21  1  0
 21 22  1  0
 22 23  1  0
 23 24  1  0
 24 25  1  0
 25 26  2  0
 25 27  1  0
 22 28  1  0
 28 29  2  0
 28 30  1  0
  8 31  1  0
 31 32  2  0
 32 33  1  0
 33 34  2  0
 34  2  1  0
 33  6  1  0
 18 13  1  0
M  END
>  <pIC50>  (105) 
5.51

>  <ChEMBL_ID>  (105) 
CHEMBL327066

>  <document_journal>  (105) 
J. Med. Chem.

>  <bao_endpoint>  (105) 
BAO_0000190

>  <potential_duplicate>  (105) 
False

>  <uo_units>  (105) 
UO_0000065

>  <canonical_smiles>  (105) 
Nc1nc(N)c2nc(COC(=O)c3ccc(cc3)C(=O)N[C@@H](CCC(=O)O)C(=O)O)cnc2n1

>  <parent_molecule_chembl_id>  (105) 
CHEMBL327066

>  <assay_type>  (105) 
B

>  <src_id>  (105) 
1

>  <ligand_efficiency>  (105) 
{u'le': u'0.22', u'bei': u'11.74', u'sei': u'2.36', u'lle': u'5.7'}

>  <standard_flag>  (105) 
True

>  <molecule_chembl_id>  (105) 
CHEMBL327066

>  <target_organism>  (105) 
Homo sapiens

>  <standard_units>  (105) 
nM

>  <record_id>  (105) 
240880

>  <document_chembl_id>  (105) 
CHEMBL1133691

>  <bao_format>  (105) 
BAO_0000357

>  <data_validity_description>  (105) 
None

>  <activity_id>  (105) 
606819

>  <standard_type>  (105) 
IC50

>  <target_chembl_id>  (105) 
CHEMBL202

>  <data_validity_comment>  (105) 
None

>  <published_value>  (105) 
3.1

>  <document_year>  (105) 
2000

>  <target_pref_name>  (105) 
Dihydrofolate reductase

>  <assay_chembl_id>  (105) 
CHEMBL669449

>  <standard_relation>  (105) 
=

>  <assay_description>  (105) 
Ability to inhibit recombinant human dihydrofolate reductase.

>  <published_relation>  (105) 
=

>  <standard_value>  (105) 
3100

>  <qudt_units>  (105) 
http://www.openphacts.org/units/Nanomolar

>  <target_tax_id>  (105) 
9606

>  <bao_label>  (105) 
single protein format

>  <published_units>  (105) 
uM

>  <pchembl_value>  (105) 
5.51

>  <published_type>  (105) 
IC50

>  <activity_comment>  (105) 
None

$$$$

     RDKit          

 33 35  0  0  0  0  0  0  0  0999 V2000
    0.0000    0.0000    0.0000 C   0  0  0  0  0  0  0  0  0  0  0  0
    0.0000    0.0000    0.0000 C   0  0  0  0  0  0  0  0  0  0  0  0
    0.0000    0.0000    0.0000 C   0  0  0  0  0  0  0  0  0  0  0  0
    0.0000    0.0000    0.0000 C   0  0  0  0  0  0  0  0  0  0  0  0
    0.0000    0.0000    0.0000 C   0  0  0  0  0  0  0  0  0  0  0  0
    0.0000    0.0000    0.0000 C   0  0  0  0  0  0  0  0  0  0  0  0
    0.0000    0.0000    0.0000 O   0  0  0  0  0  0  0  0  0  0  0  0
    0.0000    0.0000    0.0000 C   0  0  0  0  0  0  0  0  0  0  0  0
    0.0000    0.0000    0.0000 N   0  0  0  0  0  0  0  0  0  0  0  0
    0.0000    0.0000    0.0000 C   0  0  0  0  0  0  0  0  0  0  0  0
    0.0000    0.0000    0.0000 N   0  0  0  0  0  0  0  0  0  0  0  0
    0.0000    0.0000    0.0000 C   0  0  0  0  0  0  0  0  0  0  0  0
    0.0000    0.0000    0.0000 C   0  0  0  0  0  0  0  0  0  0  0  0
    0.0000    0.0000    0.0000 N   0  0  0  0  0  0  0  0  0  0  0  0
    0.0000    0.0000    0.0000 C   0  0  0  0  0  0  0  0  0  0  0  0
    0.0000    0.0000    0.0000 C   0  0  0  0  0  0  0  0  0  0  0  0
    0.0000    0.0000    0.0000 C   0  0  0  0  0  0  0  0  0  0  0  0
    0.0000    0.0000    0.0000 C   0  0  0  0  0  0  0  0  0  0  0  0
    0.0000    0.0000    0.0000 C   0  0  0  0  0  0  0  0  0  0  0  0
    0.0000    0.0000    0.0000 C   0  0  0  0  0  0  0  0  0  0  0  0
    0.0000    0.0000    0.0000 C   0  0  0  0  0  0  0  0  0  0  0  0
    0.0000    0.0000    0.0000 C   0  0  0  0  0  0  0  0  0  0  0  0
    0.0000    0.0000    0.0000 O   0  0  0  0  0  0  0  0  0  0  0  0
    0.0000    0.0000    0.0000 N   0  0  0  0  0  0  0  0  0  0  0  0
    0.0000    0.0000    0.0000 C   0  0  0  0  0  0  0  0  0  0  0  0
    0.0000    0.0000    0.0000 C   0  0  0  0  0  0  0  0  0  0  0  0
    0.0000    0.0000    0.0000 C   0  0  0  0  0  0  0  0  0  0  0  0
    0.0000    0.0000    0.0000 C   0  0  0  0  0  0  0  0  0  0  0  0
    0.0000    0.0000    0.0000 O   0  0  0  0  0  0  0  0  0  0  0  0
    0.0000    0.0000    0.0000 O   0  0  0  0  0  0  0  0  0  0  0  0
    0.0000    0.0000    0.0000 C   0  0  0  0  0  0  0  0  0  0  0  0
    0.0000    0.0000    0.0000 O   0  0  0  0  0  0  0  0  0  0  0  0
    0.0000    0.0000    0.0000 O   0  0  0  0  0  0  0  0  0  0  0  0
  1  2  1  0
  2  3  1  0
  3  4  1  0
  4  5  1  0
  5  6  2  0
  6  7  1  0
  7  8  1  0
  8  9  2  0
  9 10  1  0
 10 11  1  0
 10 12  2  0
 12 13  1  0
 13 14  1  0
 13 15  2  0
  3 16  1  0
 16 17  2  0
 17 18  1  0
 18 19  2  0
 19 20  1  0
 20 21  2  0
 19 22  1  0
 22 23  2  0
 22 24  1  0
 24 25  1  0
 25 26  1  0
 26 27  1  0
 27 28  1  0
 28 29  2  0
 28 30  1  0
 25 31  1  0
 31 32  2  0
 31 33  1  0
 15  5  1  0
 15  8  1  0
 21 16  1  0
M  END
>  <pIC50>  (106) 
6.66

>  <ChEMBL_ID>  (106) 
CHEMBL56977

>  <document_journal>  (106) 
J. Med. Chem.

>  <bao_endpoint>  (106) 
BAO_0000190

>  <potential_duplicate>  (106) 
False

>  <uo_units>  (106) 
UO_0000065

>  <canonical_smiles>  (106) 
CCC(Cc1coc2nc(N)cc(N)c12)c3ccc(cc3)C(=O)NC(CCC(=O)O)C(=O)O

>  <parent_molecule_chembl_id>  (106) 
CHEMBL56977

>  <assay_type>  (106) 
B

>  <src_id>  (106) 
1

>  <ligand_efficiency>  (106) 
{u'le': u'0.28', u'bei': u'14.65', u'sei': u'3.66', u'lle': u'4.42'}

>  <standard_flag>  (106) 
True

>  <molecule_chembl_id>  (106) 
CHEMBL56977

>  <target_organism>  (106) 
Homo sapiens

>  <standard_units>  (106) 
nM

>  <record_id>  (106) 
100840

>  <document_chembl_id>  (106) 
CHEMBL1135938

>  <bao_format>  (106) 
BAO_0000357

>  <data_validity_description>  (106) 
None

>  <activity_id>  (106) 
610597

>  <standard_type>  (106) 
IC50

>  <target_chembl_id>  (106) 
CHEMBL202

>  <data_validity_comment>  (106) 
None

>  <published_value>  (106) 
0.22

>  <document_year>  (106) 
2002

>  <target_pref_name>  (106) 
Dihydrofolate reductase

>  <assay_chembl_id>  (106) 
CHEMBL668435

>  <standard_relation>  (106) 
=

>  <assay_description>  (106) 
Inhibition of rh dihydrofolate reductase (DHFR)

>  <published_relation>  (106) 
=

>  <standard_value>  (106) 
220

>  <qudt_units>  (106) 
http://www.openphacts.org/units/Nanomolar

>  <target_tax_id>  (106) 
9606

>  <bao_label>  (106) 
single protein format

>  <published_units>  (106) 
uM

>  <pchembl_value>  (106) 
6.66

>  <published_type>  (106) 
IC50

>  <activity_comment>  (106) 
None

$$$$

     RDKit          

 41 44  0  0  0  0  0  0  0  0999 V2000
    0.0000    0.0000    0.0000 N   0  0  0  0  0  0  0  0  0  0  0  0
    0.0000    0.0000    0.0000 C   0  0  0  0  0  0  0  0  0  0  0  0
    0.0000    0.0000    0.0000 N   0  0  0  0  0  0  0  0  0  0  0  0
    0.0000    0.0000    0.0000 C   0  0  0  0  0  0  0  0  0  0  0  0
    0.0000    0.0000    0.0000 N   0  0  0  0  0  0  0  0  0  0  0  0
    0.0000    0.0000    0.0000 C   0  0  0  0  0  0  0  0  0  0  0  0
    0.0000    0.0000    0.0000 N   0  0  0  0  0  0  0  0  0  0  0  0
    0.0000    0.0000    0.0000 C   0  0  0  0  0  0  0  0  0  0  0  0
    0.0000    0.0000    0.0000 C   0  0  0  0  0  0  0  0  0  0  0  0
    0.0000    0.0000    0.0000 N   0  0  0  0  0  0  0  0  0  0  0  0
    0.0000    0.0000    0.0000 C   0  0  0  0  0  0  0  0  0  0  0  0
    0.0000    0.0000    0.0000 C   0  0  0  0  0  0  0  0  0  0  0  0
    0.0000    0.0000    0.0000 C   0  0  0  0  0  0  0  0  0  0  0  0
    0.0000    0.0000    0.0000 C   0  0  0  0  0  0  0  0  0  0  0  0
    0.0000    0.0000    0.0000 C   0  0  0  0  0  0  0  0  0  0  0  0
    0.0000    0.0000    0.0000 C   0  0  0  0  0  0  0  0  0  0  0  0
    0.0000    0.0000    0.0000 C   0  0  0  0  0  0  0  0  0  0  0  0
    0.0000    0.0000    0.0000 O   0  0  0  0  0  0  0  0  0  0  0  0
    0.0000    0.0000    0.0000 N   0  0  0  0  0  0  0  0  0  0  0  0
    0.0000    0.0000    0.0000 C   0  0  0  0  0  0  0  0  0  0  0  0
    0.0000    0.0000    0.0000 C   0  0  0  0  0  0  0  0  0  0  0  0
    0.0000    0.0000    0.0000 C   0  0  0  0  0  0  0  0  0  0  0  0
    0.0000    0.0000    0.0000 C   0  0  0  0  0  0  0  0  0  0  0  0
    0.0000    0.0000    0.0000 O   0  0  0  0  0  0  0  0  0  0  0  0
    0.0000    0.0000    0.0000 N   0  0  0  0  0  0  0  0  0  0  0  0
    0.0000    0.0000    0.0000 C   0  0  0  0  0  0  0  0  0  0  0  0
    0.0000    0.0000    0.0000 C   0  0  0  0  0  0  0  0  0  0  0  0
    0.0000    0.0000    0.0000 C   0  0  0  0  0  0  0  0  0  0  0  0
    0.0000    0.0000    0.0000 C   0  0  0  0  0  0  0  0  0  0  0  0
    0.0000    0.0000    0.0000 C   0  0  0  0  0  0  0  0  0  0  0  0
    0.0000    0.0000    0.0000 C   0  0  0  0  0  0  0  0  0  0  0  0
    0.0000    0.0000    0.0000 C   0  0  0  0  0  0  0  0  0  0  0  0
    0.0000    0.0000    0.0000 O   0  0  0  0  0  0  0  0  0  0  0  0
    0.0000    0.0000    0.0000 O   0  0  0  0  0  0  0  0  0  0  0  0
    0.0000    0.0000    0.0000 C   0  0  0  0  0  0  0  0  0  0  0  0
    0.0000    0.0000    0.0000 O   0  0  0  0  0  0  0  0  0  0  0  0
    0.0000    0.0000    0.0000 O   0  0  0  0  0  0  0  0  0  0  0  0
    0.0000    0.0000    0.0000 C   0  0  0  0  0  0  0  0  0  0  0  0
    0.0000    0.0000    0.0000 N   0  0  0  0  0  0  0  0  0  0  0  0
    0.0000    0.0000    0.0000 C   0  0  0  0  0  0  0  0  0  0  0  0
    0.0000    0.0000    0.0000 N   0  0  0  0  0  0  0  0  0  0  0  0
  1  2  1  0
  2  3  2  0
  3  4  1  0
  4  5  1  0
  4  6  2  0
  6  7  1  0
  7  8  2  0
  8  9  1  0
  9 10  1  0
 10 11  1  0
 11 12  2  0
 12 13  1  0
 13 14  2  0
 14 15  1  0
 15 16  2  0
 14 17  1  0
 17 18  2  0
 17 19  1  0
 19 20  1  0
 20 21  1  0
 21 22  1  0
 22 23  1  0
 23 24  2  0
 23 25  1  0
 25 26  1  0
 26 27  2  0
 27 28  1  0
 28 29  2  0
 29 30  1  0
 30 31  2  0
 30 32  1  0
 32 33  2  0
 32 34  1  0
 20 35  1  0
 35 36  2  0
 35 37  1  0
  8 38  1  0
 38 39  2  0
 39 40  1  0
 40 41  2  0
 41  2  1  0
 40  6  1  0
 16 11  1  0
 31 26  1  0
M  END
>  <pIC50>  (107) 
7.5

>  <ChEMBL_ID>  (107) 
CHEMBL421973

>  <document_journal>  (107) 
J. Med. Chem.

>  <bao_endpoint>  (107) 
BAO_0000190

>  <potential_duplicate>  (107) 
False

>  <uo_units>  (107) 
UO_0000065

>  <canonical_smiles>  (107) 
Nc1nc(N)c2nc(CNc3ccc(cc3)C(=O)NC(CCC(=O)Nc4cccc(c4)C(=O)O)C(=O)O)cnc2n1

>  <parent_molecule_chembl_id>  (107) 
CHEMBL421973

>  <assay_type>  (107) 
B

>  <src_id>  (107) 
1

>  <ligand_efficiency>  (107) 
{u'le': u'0.25', u'bei': u'13.39', u'sei': u'3.02', u'lle': u'6.94'}

>  <standard_flag>  (107) 
True

>  <molecule_chembl_id>  (107) 
CHEMBL421973

>  <target_organism>  (107) 
Homo sapiens

>  <standard_units>  (107) 
nM

>  <record_id>  (107) 
301766

>  <document_chembl_id>  (107) 
CHEMBL1125236

>  <bao_format>  (107) 
BAO_0000019

>  <data_validity_description>  (107) 
None

>  <activity_id>  (107) 
614658

>  <standard_type>  (107) 
IC50

>  <target_chembl_id>  (107) 
CHEMBL202

>  <data_validity_comment>  (107) 
None

>  <published_value>  (107) 
32

>  <document_year>  (107) 
1991

>  <target_pref_name>  (107) 
Dihydrofolate reductase

>  <assay_chembl_id>  (107) 
CHEMBL668432

>  <standard_relation>  (107) 
=

>  <assay_description>  (107) 
Inhibition of dihydrofolate reductase (DHFR) from human cells (WI-L2/M4).

>  <published_relation>  (107) 
=

>  <standard_value>  (107) 
32

>  <qudt_units>  (107) 
http://www.openphacts.org/units/Nanomolar

>  <target_tax_id>  (107) 
9606

>  <bao_label>  (107) 
assay format

>  <published_units>  (107) 
nM

>  <pchembl_value>  (107) 
7.5

>  <published_type>  (107) 
IC50

>  <activity_comment>  (107) 
None

$$$$

     RDKit          

 33 35  0  0  0  0  0  0  0  0999 V2000
    0.0000    0.0000    0.0000 N   0  0  0  0  0  0  0  0  0  0  0  0
    0.0000    0.0000    0.0000 C   0  0  0  0  0  0  0  0  0  0  0  0
    0.0000    0.0000    0.0000 N   0  0  0  0  0  0  0  0  0  0  0  0
    0.0000    0.0000    0.0000 C   0  0  0  0  0  0  0  0  0  0  0  0
    0.0000    0.0000    0.0000 N   0  0  0  0  0  0  0  0  0  0  0  0
    0.0000    0.0000    0.0000 C   0  0  0  0  0  0  0  0  0  0  0  0
    0.0000    0.0000    0.0000 N   0  0  0  0  0  0  0  0  0  0  0  0
    0.0000    0.0000    0.0000 C   0  0  0  0  0  0  0  0  0  0  0  0
    0.0000    0.0000    0.0000 C   0  0  0  0  0  0  0  0  0  0  0  0
    0.0000    0.0000    0.0000 N   0  0  0  0  0  0  0  0  0  0  0  0
    0.0000    0.0000    0.0000 C   0  0  0  0  0  0  0  0  0  0  0  0
    0.0000    0.0000    0.0000 C   0  0  0  0  0  0  0  0  0  0  0  0
    0.0000    0.0000    0.0000 C   0  0  0  0  0  0  0  0  0  0  0  0
    0.0000    0.0000    0.0000 C   0  0  0  0  0  0  0  0  0  0  0  0
    0.0000    0.0000    0.0000 C   0  0  0  0  0  0  0  0  0  0  0  0
    0.0000    0.0000    0.0000 C   0  0  0  0  0  0  0  0  0  0  0  0
    0.0000    0.0000    0.0000 C   0  0  0  0  0  0  0  0  0  0  0  0
    0.0000    0.0000    0.0000 O   0  0  0  0  0  0  0  0  0  0  0  0
    0.0000    0.0000    0.0000 N   0  0  0  0  0  0  0  0  0  0  0  0
    0.0000    0.0000    0.0000 C   0  0  0  0  0  0  0  0  0  0  0  0
    0.0000    0.0000    0.0000 C   0  0  0  0  0  0  0  0  0  0  0  0
    0.0000    0.0000    0.0000 C   0  0  0  0  0  0  0  0  0  0  0  0
    0.0000    0.0000    0.0000 C   0  0  0  0  0  0  0  0  0  0  0  0
    0.0000    0.0000    0.0000 C   0  0  0  0  0  0  0  0  0  0  0  0
    0.0000    0.0000    0.0000 O   0  0  0  0  0  0  0  0  0  0  0  0
    0.0000    0.0000    0.0000 O   0  0  0  0  0  0  0  0  0  0  0  0
    0.0000    0.0000    0.0000 C   0  0  0  0  0  0  0  0  0  0  0  0
    0.0000    0.0000    0.0000 O   0  0  0  0  0  0  0  0  0  0  0  0
    0.0000    0.0000    0.0000 O   0  0  0  0  0  0  0  0  0  0  0  0
    0.0000    0.0000    0.0000 C   0  0  0  0  0  0  0  0  0  0  0  0
    0.0000    0.0000    0.0000 N   0  0  0  0  0  0  0  0  0  0  0  0
    0.0000    0.0000    0.0000 C   0  0  0  0  0  0  0  0  0  0  0  0
    0.0000    0.0000    0.0000 N   0  0  0  0  0  0  0  0  0  0  0  0
  1  2  1  0
  2  3  2  0
  3  4  1  0
  4  5  1  0
  4  6  2  0
  6  7  1  0
  7  8  2  0
  8  9  1  0
  9 10  1  0
 10 11  1  0
 11 12  2  0
 12 13  1  0
 13 14  2  0
 14 15  1  0
 15 16  2  0
 14 17  1  0
 17 18  2  0
 17 19  1  0
 19 20  1  0
 20 21  1  0
 21 22  1  0
 22 23  2  0
 22 24  1  0
 24 25  2  0
 24 26  1  0
 20 27  1  0
 27 28  2  0
 27 29  1  0
  8 30  1  0
 30 31  2  0
 31 32  1  0
 32 33  2  0
 33  2  1  0
 32  6  1  0
 16 11  1  0
M  END
>  <pIC50>  (108) 
7.06

>  <ChEMBL_ID>  (108) 
CHEMBL65711

>  <document_journal>  (108) 
J. Med. Chem.

>  <bao_endpoint>  (108) 
BAO_0000190

>  <potential_duplicate>  (108) 
False

>  <uo_units>  (108) 
UO_0000065

>  <canonical_smiles>  (108) 
Nc1nc(N)c2nc(CNc3ccc(cc3)C(=O)NC(CC(=C)C(=O)O)C(=O)O)cnc2n1

>  <parent_molecule_chembl_id>  (108) 
CHEMBL65711

>  <assay_type>  (108) 
B

>  <src_id>  (108) 
1

>  <ligand_efficiency>  (108) 
{u'le': u'0.29', u'bei': u'15.6', u'sei': u'3.22', u'lle': u'6.82'}

>  <standard_flag>  (108) 
True

>  <molecule_chembl_id>  (108) 
CHEMBL65711

>  <target_organism>  (108) 
Homo sapiens

>  <standard_units>  (108) 
nM

>  <record_id>  (108) 
112261

>  <document_chembl_id>  (108) 
CHEMBL1125723

>  <bao_format>  (108) 
BAO_0000357

>  <data_validity_description>  (108) 
None

>  <activity_id>  (108) 
619913

>  <standard_type>  (108) 
IC50

>  <target_chembl_id>  (108) 
CHEMBL202

>  <data_validity_comment>  (108) 
None

>  <published_value>  (108) 
0.088

>  <document_year>  (108) 
1991

>  <target_pref_name>  (108) 
Dihydrofolate reductase

>  <assay_chembl_id>  (108) 
CHEMBL669448

>  <standard_relation>  (108) 
=

>  <assay_description>  (108) 
Ability to inhibit purified Dihydrofolate reductase from human leukemic lymphoblasts was determined spectrophotometrically at 340 nM.

>  <published_relation>  (108) 
=

>  <standard_value>  (108) 
88

>  <qudt_units>  (108) 
http://www.openphacts.org/units/Nanomolar

>  <target_tax_id>  (108) 
9606

>  <bao_label>  (108) 
single protein format

>  <published_units>  (108) 
uM

>  <pchembl_value>  (108) 
7.06

>  <published_type>  (108) 
IC50

>  <activity_comment>  (108) 
None

$$$$

     RDKit          

 34 36  0  0  0  0  0  0  0  0999 V2000
    0.0000    0.0000    0.0000 N   0  0  0  0  0  0  0  0  0  0  0  0
    0.0000    0.0000    0.0000 C   0  0  0  0  0  0  0  0  0  0  0  0
    0.0000    0.0000    0.0000 N   0  0  0  0  0  0  0  0  0  0  0  0
    0.0000    0.0000    0.0000 C   0  0  0  0  0  0  0  0  0  0  0  0
    0.0000    0.0000    0.0000 N   0  0  0  0  0  0  0  0  0  0  0  0
    0.0000    0.0000    0.0000 C   0  0  0  0  0  0  0  0  0  0  0  0
    0.0000    0.0000    0.0000 C   0  0  0  0  0  0  0  0  0  0  0  0
    0.0000    0.0000    0.0000 C   0  0  0  0  0  0  0  0  0  0  0  0
    0.0000    0.0000    0.0000 C   0  0  0  0  0  0  0  0  0  0  0  0
    0.0000    0.0000    0.0000 O   0  0  0  0  0  0  0  0  0  0  0  0
    0.0000    0.0000    0.0000 C   0  0  0  0  0  0  0  0  0  0  0  0
    0.0000    0.0000    0.0000 O   0  0  0  0  0  0  0  0  0  0  0  0
    0.0000    0.0000    0.0000 C   0  0  0  0  0  0  0  0  0  0  0  0
    0.0000    0.0000    0.0000 C   0  0  0  0  0  0  0  0  0  0  0  0
    0.0000    0.0000    0.0000 C   0  0  0  0  0  0  0  0  0  0  0  0
    0.0000    0.0000    0.0000 C   0  0  0  0  0  0  0  0  0  0  0  0
    0.0000    0.0000    0.0000 C   0  0  0  0  0  0  0  0  0  0  0  0
    0.0000    0.0000    0.0000 C   0  0  0  0  0  0  0  0  0  0  0  0
    0.0000    0.0000    0.0000 C   0  0  0  0  0  0  0  0  0  0  0  0
    0.0000    0.0000    0.0000 O   0  0  0  0  0  0  0  0  0  0  0  0
    0.0000    0.0000    0.0000 N   0  0  0  0  0  0  0  0  0  0  0  0
    0.0000    0.0000    0.0000 C   0  0  0  0  0  0  0  0  0  0  0  0
    0.0000    0.0000    0.0000 C   0  0  0  0  0  0  0  0  0  0  0  0
    0.0000    0.0000    0.0000 C   0  0  0  0  0  0  0  0  0  0  0  0
    0.0000    0.0000    0.0000 C   0  0  0  0  0  0  0  0  0  0  0  0
    0.0000    0.0000    0.0000 O   0  0  0  0  0  0  0  0  0  0  0  0
    0.0000    0.0000    0.0000 O   0  0  0  0  0  0  0  0  0  0  0  0
    0.0000    0.0000    0.0000 C   0  0  0  0  0  0  0  0  0  0  0  0
    0.0000    0.0000    0.0000 O   0  0  0  0  0  0  0  0  0  0  0  0
    0.0000    0.0000    0.0000 O   0  0  0  0  0  0  0  0  0  0  0  0
    0.0000    0.0000    0.0000 C   0  0  0  0  0  0  0  0  0  0  0  0
    0.0000    0.0000    0.0000 C   0  0  0  0  0  0  0  0  0  0  0  0
    0.0000    0.0000    0.0000 C   0  0  0  0  0  0  0  0  0  0  0  0
    0.0000    0.0000    0.0000 N   0  0  0  0  0  0  0  0  0  0  0  0
  1  2  1  0
  2  3  2  0
  3  4  1  0
  4  5  1  0
  4  6  2  0
  6  7  1  0
  7  8  2  0
  8  9  1  0
  9 10  1  0
 10 11  1  0
 11 12  2  0
 11 13  1  0
 13 14  2  0
 14 15  1  0
 15 16  2  0
 16 17  1  0
 17 18  2  0
 16 19  1  0
 19 20  2  0
 19 21  1  0
 21 22  1  0
 22 23  1  0
 23 24  1  0
 24 25  1  0
 25 26  2  0
 25 27  1  0
 22 28  1  0
 28 29  2  0
 28 30  1  0
  8 31  1  0
 31 32  2  0
 32 33  1  0
 33 34  2  0
 34  2  1  0
 33  6  1  0
 18 13  1  0
M  END
>  <pIC50>  (109) 
6.9

>  <ChEMBL_ID>  (109) 
CHEMBL117602

>  <document_journal>  (109) 
J. Med. Chem.

>  <bao_endpoint>  (109) 
BAO_0000190

>  <potential_duplicate>  (109) 
False

>  <uo_units>  (109) 
UO_0000065

>  <canonical_smiles>  (109) 
Nc1nc(N)c2cc(COC(=O)c3ccc(cc3)C(=O)N[C@@H](CCC(=O)O)C(=O)O)ccc2n1

>  <parent_molecule_chembl_id>  (109) 
CHEMBL117602

>  <assay_type>  (109) 
B

>  <src_id>  (109) 
1

>  <ligand_efficiency>  (109) 
{u'le': u'0.28', u'bei': u'14.77', u'sei': u'3.32', u'lle': u'5.63'}

>  <standard_flag>  (109) 
True

>  <molecule_chembl_id>  (109) 
CHEMBL117602

>  <target_organism>  (109) 
Homo sapiens

>  <standard_units>  (109) 
nM

>  <record_id>  (109) 
240881

>  <document_chembl_id>  (109) 
CHEMBL1133691

>  <bao_format>  (109) 
BAO_0000357

>  <data_validity_description>  (109) 
None

>  <activity_id>  (109) 
623169

>  <standard_type>  (109) 
IC50

>  <target_chembl_id>  (109) 
CHEMBL202

>  <data_validity_comment>  (109) 
None

>  <published_value>  (109) 
0.125

>  <document_year>  (109) 
2000

>  <target_pref_name>  (109) 
Dihydrofolate reductase

>  <assay_chembl_id>  (109) 
CHEMBL669449

>  <standard_relation>  (109) 
=

>  <assay_description>  (109) 
Ability to inhibit recombinant human dihydrofolate reductase.

>  <published_relation>  (109) 
=

>  <standard_value>  (109) 
125

>  <qudt_units>  (109) 
http://www.openphacts.org/units/Nanomolar

>  <target_tax_id>  (109) 
9606

>  <bao_label>  (109) 
single protein format

>  <published_units>  (109) 
uM

>  <pchembl_value>  (109) 
6.9

>  <published_type>  (109) 
IC50

>  <activity_comment>  (109) 
None

$$$$

     RDKit          

 35 37  0  0  0  0  0  0  0  0999 V2000
    0.0000    0.0000    0.0000 C   0  0  0  0  0  0  0  0  0  0  0  0
    0.0000    0.0000    0.0000 N   0  0  0  0  0  0  0  0  0  0  0  0
    0.0000    0.0000    0.0000 C   0  0  0  0  0  0  0  0  0  0  0  0
    0.0000    0.0000    0.0000 C   0  0  0  0  0  0  0  0  0  0  0  0
    0.0000    0.0000    0.0000 C   0  0  0  0  0  0  0  0  0  0  0  0
    0.0000    0.0000    0.0000 N   0  0  0  0  0  0  0  0  0  0  0  0
    0.0000    0.0000    0.0000 C   0  0  0  0  0  0  0  0  0  0  0  0
    0.0000    0.0000    0.0000 N   0  0  0  0  0  0  0  0  0  0  0  0
    0.0000    0.0000    0.0000 C   0  0  0  0  0  0  0  0  0  0  0  0
    0.0000    0.0000    0.0000 N   0  0  0  0  0  0  0  0  0  0  0  0
    0.0000    0.0000    0.0000 N   0  0  0  0  0  0  0  0  0  0  0  0
    0.0000    0.0000    0.0000 C   0  0  0  0  0  0  0  0  0  0  0  0
    0.0000    0.0000    0.0000 N   0  0  0  0  0  0  0  0  0  0  0  0
    0.0000    0.0000    0.0000 C   0  0  0  0  0  0  0  0  0  0  0  0
    0.0000    0.0000    0.0000 N   0  0  0  0  0  0  0  0  0  0  0  0
    0.0000    0.0000    0.0000 C   0  0  0  0  0  0  0  0  0  0  0  0
    0.0000    0.0000    0.0000 C   0  0  0  0  0  0  0  0  0  0  0  0
    0.0000    0.0000    0.0000 C   0  0  0  0  0  0  0  0  0  0  0  0
    0.0000    0.0000    0.0000 C   0  0  0  0  0  0  0  0  0  0  0  0
    0.0000    0.0000    0.0000 C   0  0  0  0  0  0  0  0  0  0  0  0
    0.0000    0.0000    0.0000 C   0  0  0  0  0  0  0  0  0  0  0  0
    0.0000    0.0000    0.0000 C   0  0  0  0  0  0  0  0  0  0  0  0
    0.0000    0.0000    0.0000 O   0  0  0  0  0  0  0  0  0  0  0  0
    0.0000    0.0000    0.0000 N   0  0  0  0  0  0  0  0  0  0  0  0
    0.0000    0.0000    0.0000 C   0  0  0  0  0  0  0  0  0  0  0  0
    0.0000    0.0000    0.0000 C   0  0  0  0  0  0  0  0  0  0  0  0
    0.0000    0.0000    0.0000 C   0  0  0  0  0  0  0  0  0  0  0  0
    0.0000    0.0000    0.0000 C   0  0  0  0  0  0  0  0  0  0  0  0
    0.0000    0.0000    0.0000 N   0  0  0  0  0  0  0  0  0  0  0  0
    0.0000    0.0000    0.0000 C   0  0  0  0  0  0  0  0  0  0  0  0
    0.0000    0.0000    0.0000 O   0  0  0  0  0  0  0  0  0  0  0  0
    0.0000    0.0000    0.0000 O   0  0  0  0  0  0  0  0  0  0  0  0
    0.0000    0.0000    0.0000 C   0  0  0  0  0  0  0  0  0  0  0  0
    0.0000    0.0000    0.0000 O   0  0  0  0  0  0  0  0  0  0  0  0
    0.0000    0.0000    0.0000 O   0  0  0  0  0  0  0  0  0  0  0  0
  1  2  1  0
  2  3  1  0
  3  4  1  0
  4  5  2  0
  5  6  1  0
  6  7  2  0
  7  8  1  0
  8  9  2  0
  9 10  1  0
  9 11  1  0
 11 12  2  0
 12 13  1  0
 12 14  1  0
 14 15  2  0
  2 16  1  0
 16 17  2  0
 17 18  1  0
 18 19  2  0
 19 20  1  0
 20 21  2  0
 19 22  1  0
 22 23  2  0
 22 24  1  0
 24 25  1  0
 25 26  1  0
 26 27  1  0
 27 28  1  0
 28 29  3  0
 27 30  1  0
 30 31  2  0
 30 32  1  0
 25 33  1  0
 33 34  2  0
 33 35  1  0
 15  4  1  0
 14  7  1  0
 21 16  1  0
M  END
>  <pIC50>  (110) 
7.24

>  <ChEMBL_ID>  (110) 
CHEMBL65620

>  <document_journal>  (110) 
J. Med. Chem.

>  <bao_endpoint>  (110) 
BAO_0000190

>  <potential_duplicate>  (110) 
False

>  <uo_units>  (110) 
UO_0000065

>  <canonical_smiles>  (110) 
CN(Cc1cnc2nc(N)nc(N)c2n1)c3ccc(cc3)C(=O)NC(CC(C#N)C(=O)O)C(=O)O

>  <parent_molecule_chembl_id>  (110) 
CHEMBL65620

>  <assay_type>  (110) 
B

>  <src_id>  (110) 
1

>  <ligand_efficiency>  (110) 
{u'le': u'0.28', u'bei': u'15.11', u'sei': u'3.09', u'lle': u'7.27'}

>  <standard_flag>  (110) 
True

>  <molecule_chembl_id>  (110) 
CHEMBL65620

>  <target_organism>  (110) 
Homo sapiens

>  <standard_units>  (110) 
nM

>  <record_id>  (110) 
112262

>  <document_chembl_id>  (110) 
CHEMBL1125723

>  <bao_format>  (110) 
BAO_0000357

>  <data_validity_description>  (110) 
None

>  <activity_id>  (110) 
626183

>  <standard_type>  (110) 
IC50

>  <target_chembl_id>  (110) 
CHEMBL202

>  <data_validity_comment>  (110) 
None

>  <published_value>  (110) 
0.057

>  <document_year>  (110) 
1991

>  <target_pref_name>  (110) 
Dihydrofolate reductase

>  <assay_chembl_id>  (110) 
CHEMBL669448

>  <standard_relation>  (110) 
=

>  <assay_description>  (110) 
Ability to inhibit purified Dihydrofolate reductase from human leukemic lymphoblasts was determined spectrophotometrically at 340 nM.

>  <published_relation>  (110) 
=

>  <standard_value>  (110) 
57

>  <qudt_units>  (110) 
http://www.openphacts.org/units/Nanomolar

>  <target_tax_id>  (110) 
9606

>  <bao_label>  (110) 
single protein format

>  <published_units>  (110) 
uM

>  <pchembl_value>  (110) 
7.24

>  <published_type>  (110) 
IC50

>  <activity_comment>  (110) 
None

$$$$

     RDKit          

 26 28  0  0  0  0  0  0  0  0999 V2000
    0.0000    0.0000    0.0000 C   0  0  0  0  0  0  0  0  0  0  0  0
    0.0000    0.0000    0.0000 O   0  0  0  0  0  0  0  0  0  0  0  0
    0.0000    0.0000    0.0000 C   0  0  0  0  0  0  0  0  0  0  0  0
    0.0000    0.0000    0.0000 C   0  0  0  0  0  0  0  0  0  0  0  0
    0.0000    0.0000    0.0000 C   0  0  0  0  0  0  0  0  0  0  0  0
    0.0000    0.0000    0.0000 C   0  0  0  0  0  0  0  0  0  0  0  0
    0.0000    0.0000    0.0000 N   0  0  0  0  0  0  0  0  0  0  0  0
    0.0000    0.0000    0.0000 C   0  0  0  0  0  0  0  0  0  0  0  0
    0.0000    0.0000    0.0000 C   0  0  0  0  0  0  0  0  0  0  0  0
    0.0000    0.0000    0.0000 N   0  0  0  0  0  0  0  0  0  0  0  0
    0.0000    0.0000    0.0000 C   0  0  0  0  0  0  0  0  0  0  0  0
    0.0000    0.0000    0.0000 N   0  0  0  0  0  0  0  0  0  0  0  0
    0.0000    0.0000    0.0000 C   0  0  0  0  0  0  0  0  0  0  0  0
    0.0000    0.0000    0.0000 N   0  0  0  0  0  0  0  0  0  0  0  0
    0.0000    0.0000    0.0000 N   0  0  0  0  0  0  0  0  0  0  0  0
    0.0000    0.0000    0.0000 C   0  0  0  0  0  0  0  0  0  0  0  0
    0.0000    0.0000    0.0000 N   0  0  0  0  0  0  0  0  0  0  0  0
    0.0000    0.0000    0.0000 C   0  0  0  0  0  0  0  0  0  0  0  0
    0.0000    0.0000    0.0000 C   0  0  0  0  0  0  0  0  0  0  0  0
    0.0000    0.0000    0.0000 C   0  0  0  0  0  0  0  0  0  0  0  0
    0.0000    0.0000    0.0000 C   0  0  0  0  0  0  0  0  0  0  0  0
    0.0000    0.0000    0.0000 O   0  0  0  0  0  0  0  0  0  0  0  0
    0.0000    0.0000    0.0000 C   0  0  0  0  0  0  0  0  0  0  0  0
    0.0000    0.0000    0.0000 C   0  0  0  0  0  0  0  0  0  0  0  0
    0.0000    0.0000    0.0000 O   0  0  0  0  0  0  0  0  0  0  0  0
    0.0000    0.0000    0.0000 C   0  0  0  0  0  0  0  0  0  0  0  0
  1  2  1  0
  2  3  1  0
  3  4  2  0
  4  5  1  0
  5  6  1  0
  6  7  1  0
  7  8  1  0
  8  9  2  0
  9 10  1  0
 10 11  2  0
 11 12  1  0
 12 13  2  0
 13 14  1  0
 13 15  1  0
 15 16  2  0
 16 17  1  0
 16 18  1  0
 18 19  2  0
  5 20  2  0
 20 21  1  0
 21 22  1  0
 22 23  1  0
 21 24  2  0
 24 25  1  0
 25 26  1  0
 24  3  1  0
 19  8  1  0
 18 11  1  0
M  END
>  <pIC50>  (111) 
4.12

>  <ChEMBL_ID>  (111) 
CHEMBL33208

>  <document_journal>  (111) 
J. Med. Chem.

>  <bao_endpoint>  (111) 
BAO_0000190

>  <potential_duplicate>  (111) 
True

>  <uo_units>  (111) 
UO_0000065

>  <canonical_smiles>  (111) 
COc1cc(CNc2cnc3nc(N)nc(N)c3c2)cc(OC)c1OC

>  <parent_molecule_chembl_id>  (111) 
CHEMBL33208

>  <assay_type>  (111) 
B

>  <src_id>  (111) 
1

>  <ligand_efficiency>  (111) 
{u'le': u'0.22', u'bei': u'11.56', u'sei': u'3.16', u'lle': u'2.78'}

>  <standard_flag>  (111) 
True

>  <molecule_chembl_id>  (111) 
CHEMBL33208

>  <target_organism>  (111) 
Homo sapiens

>  <standard_units>  (111) 
nM

>  <record_id>  (111) 
218387

>  <document_chembl_id>  (111) 
CHEMBL1131583

>  <bao_format>  (111) 
BAO_0000357

>  <data_validity_description>  (111) 
None

>  <activity_id>  (111) 
674126

>  <standard_type>  (111) 
IC50

>  <target_chembl_id>  (111) 
CHEMBL202

>  <data_validity_comment>  (111) 
None

>  <published_value>  (111) 
76

>  <document_year>  (111) 
1998

>  <target_pref_name>  (111) 
Dihydrofolate reductase

>  <assay_chembl_id>  (111) 
CHEMBL668436

>  <standard_relation>  (111) 
=

>  <assay_description>  (111) 
Inhibitory activity against Dihydrofolate reductase from recombinant human (hDHFR)

>  <published_relation>  (111) 
=

>  <standard_value>  (111) 
76000

>  <qudt_units>  (111) 
http://www.openphacts.org/units/Nanomolar

>  <target_tax_id>  (111) 
9606

>  <bao_label>  (111) 
single protein format

>  <published_units>  (111) 
uM

>  <pchembl_value>  (111) 
4.12

>  <published_type>  (111) 
IC50

>  <activity_comment>  (111) 
None

$$$$

     RDKit          

 25 27  0  0  0  0  0  0  0  0999 V2000
    0.0000    0.0000    0.0000 C   0  0  0  0  0  0  0  0  0  0  0  0
    0.0000    0.0000    0.0000 O   0  0  0  0  0  0  0  0  0  0  0  0
    0.0000    0.0000    0.0000 C   0  0  0  0  0  0  0  0  0  0  0  0
    0.0000    0.0000    0.0000 C   0  0  0  0  0  0  0  0  0  0  0  0
    0.0000    0.0000    0.0000 C   0  0  0  0  0  0  0  0  0  0  0  0
    0.0000    0.0000    0.0000 C   0  0  0  0  0  0  0  0  0  0  0  0
    0.0000    0.0000    0.0000 O   0  0  0  0  0  0  0  0  0  0  0  0
    0.0000    0.0000    0.0000 C   0  0  0  0  0  0  0  0  0  0  0  0
    0.0000    0.0000    0.0000 C   0  0  0  0  0  0  0  0  0  0  0  0
    0.0000    0.0000    0.0000 C   0  0  0  0  0  0  0  0  0  0  0  0
    0.0000    0.0000    0.0000 N   0  0  0  0  0  0  0  0  0  0  0  0
    0.0000    0.0000    0.0000 C   0  0  0  0  0  0  0  0  0  0  0  0
    0.0000    0.0000    0.0000 C   0  0  0  0  0  0  0  0  0  0  0  0
    0.0000    0.0000    0.0000 C   0  0  0  0  0  0  0  0  0  0  0  0
    0.0000    0.0000    0.0000 N   0  0  0  0  0  0  0  0  0  0  0  0
    0.0000    0.0000    0.0000 C   0  0  0  0  0  0  0  0  0  0  0  0
    0.0000    0.0000    0.0000 N   0  0  0  0  0  0  0  0  0  0  0  0
    0.0000    0.0000    0.0000 C   0  0  0  0  0  0  0  0  0  0  0  0
    0.0000    0.0000    0.0000 N   0  0  0  0  0  0  0  0  0  0  0  0
    0.0000    0.0000    0.0000 N   0  0  0  0  0  0  0  0  0  0  0  0
    0.0000    0.0000    0.0000 C   0  0  0  0  0  0  0  0  0  0  0  0
    0.0000    0.0000    0.0000 N   0  0  0  0  0  0  0  0  0  0  0  0
    0.0000    0.0000    0.0000 C   0  0  0  0  0  0  0  0  0  0  0  0
    0.0000    0.0000    0.0000 C   0  0  0  0  0  0  0  0  0  0  0  0
    0.0000    0.0000    0.0000 C   0  0  0  0  0  0  0  0  0  0  0  0
  1  2  1  0
  2  3  1  0
  3  4  2  0
  4  5  1  0
  5  6  2  0
  6  7  1  0
  7  8  1  0
  6  9  1  0
  9 10  1  0
 10 11  1  0
 11 12  1  0
 11 13  1  0
 13 14  2  0
 14 15  1  0
 15 16  2  0
 16 17  1  0
 17 18  2  0
 18 19  1  0
 18 20  1  0
 20 21  2  0
 21 22  1  0
 21 23  1  0
 23 24  2  0
  9 25  2  0
 25  3  1  0
 24 13  1  0
 23 16  1  0
M  END
>  <pIC50>  (112) 
5.07

>  <ChEMBL_ID>  (112) 
CHEMBL32113

>  <document_journal>  (112) 
J. Med. Chem.

>  <bao_endpoint>  (112) 
BAO_0000190

>  <potential_duplicate>  (112) 
True

>  <uo_units>  (112) 
UO_0000065

>  <canonical_smiles>  (112) 
COc1ccc(OC)c(CN(C)c2cnc3nc(N)nc(N)c3c2)c1

>  <parent_molecule_chembl_id>  (112) 
CHEMBL32113

>  <assay_type>  (112) 
B

>  <src_id>  (112) 
1

>  <ligand_efficiency>  (112) 
{u'le': u'0.28', u'bei': u'14.9', u'sei': u'4.51', u'lle': u'3.36'}

>  <standard_flag>  (112) 
True

>  <molecule_chembl_id>  (112) 
CHEMBL32113

>  <target_organism>  (112) 
Homo sapiens

>  <standard_units>  (112) 
nM

>  <record_id>  (112) 
218386

>  <document_chembl_id>  (112) 
CHEMBL1131583

>  <bao_format>  (112) 
BAO_0000357

>  <data_validity_description>  (112) 
None

>  <activity_id>  (112) 
683497

>  <standard_type>  (112) 
IC50

>  <target_chembl_id>  (112) 
CHEMBL202

>  <data_validity_comment>  (112) 
None

>  <published_value>  (112) 
8.5

>  <document_year>  (112) 
1998

>  <target_pref_name>  (112) 
Dihydrofolate reductase

>  <assay_chembl_id>  (112) 
CHEMBL668436

>  <standard_relation>  (112) 
=

>  <assay_description>  (112) 
Inhibitory activity against Dihydrofolate reductase from recombinant human (hDHFR)

>  <published_relation>  (112) 
=

>  <standard_value>  (112) 
8500

>  <qudt_units>  (112) 
http://www.openphacts.org/units/Nanomolar

>  <target_tax_id>  (112) 
9606

>  <bao_label>  (112) 
single protein format

>  <published_units>  (112) 
uM

>  <pchembl_value>  (112) 
5.07

>  <published_type>  (112) 
IC50

>  <activity_comment>  (112) 
None

$$$$

     RDKit          

 24 26  0  0  0  0  0  0  0  0999 V2000
    0.0000    0.0000    0.0000 C   0  0  0  0  0  0  0  0  0  0  0  0
    0.0000    0.0000    0.0000 O   0  0  0  0  0  0  0  0  0  0  0  0
    0.0000    0.0000    0.0000 C   0  0  0  0  0  0  0  0  0  0  0  0
    0.0000    0.0000    0.0000 C   0  0  0  0  0  0  0  0  0  0  0  0
    0.0000    0.0000    0.0000 C   0  0  0  0  0  0  0  0  0  0  0  0
    0.0000    0.0000    0.0000 C   0  0  0  0  0  0  0  0  0  0  0  0
    0.0000    0.0000    0.0000 C   0  0  0  0  0  0  0  0  0  0  0  0
    0.0000    0.0000    0.0000 N   0  0  0  0  0  0  0  0  0  0  0  0
    0.0000    0.0000    0.0000 C   0  0  0  0  0  0  0  0  0  0  0  0
    0.0000    0.0000    0.0000 C   0  0  0  0  0  0  0  0  0  0  0  0
    0.0000    0.0000    0.0000 C   0  0  0  0  0  0  0  0  0  0  0  0
    0.0000    0.0000    0.0000 C   0  0  0  0  0  0  0  0  0  0  0  0
    0.0000    0.0000    0.0000 N   0  0  0  0  0  0  0  0  0  0  0  0
    0.0000    0.0000    0.0000 C   0  0  0  0  0  0  0  0  0  0  0  0
    0.0000    0.0000    0.0000 N   0  0  0  0  0  0  0  0  0  0  0  0
    0.0000    0.0000    0.0000 N   0  0  0  0  0  0  0  0  0  0  0  0
    0.0000    0.0000    0.0000 C   0  0  0  0  0  0  0  0  0  0  0  0
    0.0000    0.0000    0.0000 N   0  0  0  0  0  0  0  0  0  0  0  0
    0.0000    0.0000    0.0000 C   0  0  0  0  0  0  0  0  0  0  0  0
    0.0000    0.0000    0.0000 C   0  0  0  0  0  0  0  0  0  0  0  0
    0.0000    0.0000    0.0000 C   0  0  0  0  0  0  0  0  0  0  0  0
    0.0000    0.0000    0.0000 O   0  0  0  0  0  0  0  0  0  0  0  0
    0.0000    0.0000    0.0000 C   0  0  0  0  0  0  0  0  0  0  0  0
    0.0000    0.0000    0.0000 C   0  0  0  0  0  0  0  0  0  0  0  0
  1  2  1  0
  2  3  1  0
  3  4  2  0
  4  5  1  0
  5  6  2  0
  6  7  1  0
  7  8  1  0
  8  9  1  0
  9 10  2  0
 10 11  1  0
 11 12  2  0
 12 13  1  0
 13 14  2  0
 14 15  1  0
 14 16  1  0
 16 17  2  0
 17 18  1  0
 17 19  1  0
 19 20  2  0
  6 21  1  0
 21 22  1  0
 22 23  1  0
 21 24  2  0
 24  3  1  0
 20  9  1  0
 19 12  1  0
M  END
>  <pIC50>  (113) 
4.59

>  <ChEMBL_ID>  (113) 
CHEMBL116200

>  <document_journal>  (113) 
J. Med. Chem.

>  <bao_endpoint>  (113) 
BAO_0000190

>  <potential_duplicate>  (113) 
False

>  <uo_units>  (113) 
UO_0000065

>  <canonical_smiles>  (113) 
COc1ccc(CNc2ccc3nc(N)nc(N)c3c2)c(OC)c1

>  <parent_molecule_chembl_id>  (113) 
CHEMBL116200

>  <assay_type>  (113) 
B

>  <src_id>  (113) 
1

>  <ligand_efficiency>  (113) 
{u'le': u'0.26', u'bei': u'14.09', u'sei': u'4.23', u'lle': u'2.28'}

>  <standard_flag>  (113) 
True

>  <molecule_chembl_id>  (113) 
CHEMBL116200

>  <target_organism>  (113) 
Homo sapiens

>  <standard_units>  (113) 
nM

>  <record_id>  (113) 
218380

>  <document_chembl_id>  (113) 
CHEMBL1131583

>  <bao_format>  (113) 
BAO_0000357

>  <data_validity_description>  (113) 
None

>  <activity_id>  (113) 
686203

>  <standard_type>  (113) 
IC50

>  <target_chembl_id>  (113) 
CHEMBL202

>  <data_validity_comment>  (113) 
None

>  <published_value>  (113) 
26

>  <document_year>  (113) 
1998

>  <target_pref_name>  (113) 
Dihydrofolate reductase

>  <assay_chembl_id>  (113) 
CHEMBL668436

>  <standard_relation>  (113) 
=

>  <assay_description>  (113) 
Inhibitory activity against Dihydrofolate reductase from recombinant human (hDHFR)

>  <published_relation>  (113) 
=

>  <standard_value>  (113) 
26000

>  <qudt_units>  (113) 
http://www.openphacts.org/units/Nanomolar

>  <target_tax_id>  (113) 
9606

>  <bao_label>  (113) 
single protein format

>  <published_units>  (113) 
uM

>  <pchembl_value>  (113) 
4.59

>  <published_type>  (113) 
IC50

>  <activity_comment>  (113) 
None

$$$$

     RDKit          

 24 27  0  0  0  0  0  0  0  0999 V2000
    0.0000    0.0000    0.0000 N   0  0  0  0  0  0  0  0  0  0  0  0
    0.0000    0.0000    0.0000 C   0  0  0  0  0  0  0  0  0  0  0  0
    0.0000    0.0000    0.0000 N   0  0  0  0  0  0  0  0  0  0  0  0
    0.0000    0.0000    0.0000 C   0  0  0  0  0  0  0  0  0  0  0  0
    0.0000    0.0000    0.0000 N   0  0  0  0  0  0  0  0  0  0  0  0
    0.0000    0.0000    0.0000 C   0  0  0  0  0  0  0  0  0  0  0  0
    0.0000    0.0000    0.0000 C   0  0  0  0  0  0  0  0  0  0  0  0
    0.0000    0.0000    0.0000 C   0  0  0  0  0  0  0  0  0  0  0  0
    0.0000    0.0000    0.0000 N   0  0  0  0  0  0  0  0  0  0  0  0
    0.0000    0.0000    0.0000 C   0  0  0  0  0  0  0  0  0  0  0  0
    0.0000    0.0000    0.0000 C   0  0  0  0  0  0  0  0  0  0  0  0
    0.0000    0.0000    0.0000 C   0  0  0  0  0  0  0  0  0  0  0  0
    0.0000    0.0000    0.0000 C   0  0  0  0  0  0  0  0  0  0  0  0
    0.0000    0.0000    0.0000 C   0  0  0  0  0  0  0  0  0  0  0  0
    0.0000    0.0000    0.0000 C   0  0  0  0  0  0  0  0  0  0  0  0
    0.0000    0.0000    0.0000 C   0  0  0  0  0  0  0  0  0  0  0  0
    0.0000    0.0000    0.0000 C   0  0  0  0  0  0  0  0  0  0  0  0
    0.0000    0.0000    0.0000 C   0  0  0  0  0  0  0  0  0  0  0  0
    0.0000    0.0000    0.0000 C   0  0  0  0  0  0  0  0  0  0  0  0
    0.0000    0.0000    0.0000 C   0  0  0  0  0  0  0  0  0  0  0  0
    0.0000    0.0000    0.0000 C   0  0  0  0  0  0  0  0  0  0  0  0
    0.0000    0.0000    0.0000 C   0  0  0  0  0  0  0  0  0  0  0  0
    0.0000    0.0000    0.0000 C   0  0  0  0  0  0  0  0  0  0  0  0
    0.0000    0.0000    0.0000 N   0  0  0  0  0  0  0  0  0  0  0  0
  1  2  1  0
  2  3  2  0
  3  4  1  0
  4  5  1  0
  4  6  2  0
  6  7  1  0
  7  8  2  0
  8  9  1  0
  9 10  1  0
 10 11  1  0
 11 12  2  0
 12 13  1  0
 13 14  2  0
 14 15  1  0
 15 16  1  0
 16 17  1  0
 17 18  1  0
 18 19  1  0
 19 20  1  0
  8 21  1  0
 21 22  2  0
 22 23  1  0
 23 24  2  0
 24  2  1  0
 23  6  1  0
 20 11  1  0
 20 15  2  0
M  END
>  <pIC50>  (114) 
6.22

>  <ChEMBL_ID>  (114) 
CHEMBL114839

>  <document_journal>  (114) 
J. Med. Chem.

>  <bao_endpoint>  (114) 
BAO_0000190

>  <potential_duplicate>  (114) 
False

>  <uo_units>  (114) 
UO_0000065

>  <canonical_smiles>  (114) 
Nc1nc(N)c2cc(NCc3cccc4CCCCc34)ccc2n1

>  <parent_molecule_chembl_id>  (114) 
CHEMBL114839

>  <assay_type>  (114) 
B

>  <src_id>  (114) 
1

>  <ligand_efficiency>  (114) 
{u'le': u'0.35', u'bei': u'19.48', u'sei': u'6.92', u'lle': u'2.36'}

>  <standard_flag>  (114) 
True

>  <molecule_chembl_id>  (114) 
CHEMBL114839

>  <target_organism>  (114) 
Homo sapiens

>  <standard_units>  (114) 
nM

>  <record_id>  (114) 
218375

>  <document_chembl_id>  (114) 
CHEMBL1131583

>  <bao_format>  (114) 
BAO_0000357

>  <data_validity_description>  (114) 
None

>  <activity_id>  (114) 
689025

>  <standard_type>  (114) 
IC50

>  <target_chembl_id>  (114) 
CHEMBL202

>  <data_validity_comment>  (114) 
None

>  <published_value>  (114) 
0.6

>  <document_year>  (114) 
1998

>  <target_pref_name>  (114) 
Dihydrofolate reductase

>  <assay_chembl_id>  (114) 
CHEMBL668436

>  <standard_relation>  (114) 
=

>  <assay_description>  (114) 
Inhibitory activity against Dihydrofolate reductase from recombinant human (hDHFR)

>  <published_relation>  (114) 
=

>  <standard_value>  (114) 
600

>  <qudt_units>  (114) 
http://www.openphacts.org/units/Nanomolar

>  <target_tax_id>  (114) 
9606

>  <bao_label>  (114) 
single protein format

>  <published_units>  (114) 
uM

>  <pchembl_value>  (114) 
6.22

>  <published_type>  (114) 
IC50

>  <activity_comment>  (114) 
None

$$$$

     RDKit          

 25 27  0  0  0  0  0  0  0  0999 V2000
    0.0000    0.0000    0.0000 C   0  0  0  0  0  0  0  0  0  0  0  0
    0.0000    0.0000    0.0000 O   0  0  0  0  0  0  0  0  0  0  0  0
    0.0000    0.0000    0.0000 C   0  0  0  0  0  0  0  0  0  0  0  0
    0.0000    0.0000    0.0000 C   0  0  0  0  0  0  0  0  0  0  0  0
    0.0000    0.0000    0.0000 C   0  0  0  0  0  0  0  0  0  0  0  0
    0.0000    0.0000    0.0000 C   0  0  0  0  0  0  0  0  0  0  0  0
    0.0000    0.0000    0.0000 O   0  0  0  0  0  0  0  0  0  0  0  0
    0.0000    0.0000    0.0000 C   0  0  0  0  0  0  0  0  0  0  0  0
    0.0000    0.0000    0.0000 C   0  0  0  0  0  0  0  0  0  0  0  0
    0.0000    0.0000    0.0000 C   0  0  0  0  0  0  0  0  0  0  0  0
    0.0000    0.0000    0.0000 N   0  0  0  0  0  0  0  0  0  0  0  0
    0.0000    0.0000    0.0000 C   0  0  0  0  0  0  0  0  0  0  0  0
    0.0000    0.0000    0.0000 C   0  0  0  0  0  0  0  0  0  0  0  0
    0.0000    0.0000    0.0000 C   0  0  0  0  0  0  0  0  0  0  0  0
    0.0000    0.0000    0.0000 C   0  0  0  0  0  0  0  0  0  0  0  0
    0.0000    0.0000    0.0000 C   0  0  0  0  0  0  0  0  0  0  0  0
    0.0000    0.0000    0.0000 N   0  0  0  0  0  0  0  0  0  0  0  0
    0.0000    0.0000    0.0000 C   0  0  0  0  0  0  0  0  0  0  0  0
    0.0000    0.0000    0.0000 N   0  0  0  0  0  0  0  0  0  0  0  0
    0.0000    0.0000    0.0000 N   0  0  0  0  0  0  0  0  0  0  0  0
    0.0000    0.0000    0.0000 C   0  0  0  0  0  0  0  0  0  0  0  0
    0.0000    0.0000    0.0000 N   0  0  0  0  0  0  0  0  0  0  0  0
    0.0000    0.0000    0.0000 C   0  0  0  0  0  0  0  0  0  0  0  0
    0.0000    0.0000    0.0000 C   0  0  0  0  0  0  0  0  0  0  0  0
    0.0000    0.0000    0.0000 C   0  0  0  0  0  0  0  0  0  0  0  0
  1  2  1  0
  2  3  1  0
  3  4  2  0
  4  5  1  0
  5  6  2  0
  6  7  1  0
  7  8  1  0
  6  9  1  0
  9 10  1  0
 10 11  1  0
 11 12  1  0
 11 13  1  0
 13 14  2  0
 14 15  1  0
 15 16  2  0
 16 17  1  0
 17 18  2  0
 18 19  1  0
 18 20  1  0
 20 21  2  0
 21 22  1  0
 21 23  1  0
 23 24  2  0
  9 25  2  0
 25  3  1  0
 24 13  1  0
 23 16  1  0
M  END
>  <pIC50>  (115) 
7.59

>  <ChEMBL_ID>  (115) 
CHEMBL325434

>  <document_journal>  (115) 
J. Med. Chem.

>  <bao_endpoint>  (115) 
BAO_0000190

>  <potential_duplicate>  (115) 
False

>  <uo_units>  (115) 
UO_0000065

>  <canonical_smiles>  (115) 
COc1ccc(OC)c(CN(C)c2ccc3nc(N)nc(N)c3c2)c1

>  <parent_molecule_chembl_id>  (115) 
CHEMBL325434

>  <assay_type>  (115) 
B

>  <src_id>  (115) 
1

>  <ligand_efficiency>  (115) 
{u'le': u'0.41', u'bei': u'22.35', u'sei': u'7.62', u'lle': u'4.92'}

>  <standard_flag>  (115) 
True

>  <molecule_chembl_id>  (115) 
CHEMBL325434

>  <target_organism>  (115) 
Homo sapiens

>  <standard_units>  (115) 
nM

>  <record_id>  (115) 
218374

>  <document_chembl_id>  (115) 
CHEMBL1131583

>  <bao_format>  (115) 
BAO_0000357

>  <data_validity_description>  (115) 
None

>  <activity_id>  (115) 
690314

>  <standard_type>  (115) 
IC50

>  <target_chembl_id>  (115) 
CHEMBL202

>  <data_validity_comment>  (115) 
None

>  <published_value>  (115) 
0.026

>  <document_year>  (115) 
1998

>  <target_pref_name>  (115) 
Dihydrofolate reductase

>  <assay_chembl_id>  (115) 
CHEMBL668436

>  <standard_relation>  (115) 
=

>  <assay_description>  (115) 
Inhibitory activity against Dihydrofolate reductase from recombinant human (hDHFR)

>  <published_relation>  (115) 
=

>  <standard_value>  (115) 
26

>  <qudt_units>  (115) 
http://www.openphacts.org/units/Nanomolar

>  <target_tax_id>  (115) 
9606

>  <bao_label>  (115) 
single protein format

>  <published_units>  (115) 
uM

>  <pchembl_value>  (115) 
7.59

>  <published_type>  (115) 
IC50

>  <activity_comment>  (115) 
None

$$$$

     RDKit          

 26 28  0  0  0  0  0  0  0  0999 V2000
    0.0000    0.0000    0.0000 C   0  0  0  0  0  0  0  0  0  0  0  0
    0.0000    0.0000    0.0000 O   0  0  0  0  0  0  0  0  0  0  0  0
    0.0000    0.0000    0.0000 C   0  0  0  0  0  0  0  0  0  0  0  0
    0.0000    0.0000    0.0000 C   0  0  0  0  0  0  0  0  0  0  0  0
    0.0000    0.0000    0.0000 C   0  0  0  0  0  0  0  0  0  0  0  0
    0.0000    0.0000    0.0000 O   0  0  0  0  0  0  0  0  0  0  0  0
    0.0000    0.0000    0.0000 C   0  0  0  0  0  0  0  0  0  0  0  0
    0.0000    0.0000    0.0000 C   0  0  0  0  0  0  0  0  0  0  0  0
    0.0000    0.0000    0.0000 C   0  0  0  0  0  0  0  0  0  0  0  0
    0.0000    0.0000    0.0000 N   0  0  0  0  0  0  0  0  0  0  0  0
    0.0000    0.0000    0.0000 C   0  0  0  0  0  0  0  0  0  0  0  0
    0.0000    0.0000    0.0000 C   0  0  0  0  0  0  0  0  0  0  0  0
    0.0000    0.0000    0.0000 C   0  0  0  0  0  0  0  0  0  0  0  0
    0.0000    0.0000    0.0000 C   0  0  0  0  0  0  0  0  0  0  0  0
    0.0000    0.0000    0.0000 N   0  0  0  0  0  0  0  0  0  0  0  0
    0.0000    0.0000    0.0000 C   0  0  0  0  0  0  0  0  0  0  0  0
    0.0000    0.0000    0.0000 N   0  0  0  0  0  0  0  0  0  0  0  0
    0.0000    0.0000    0.0000 N   0  0  0  0  0  0  0  0  0  0  0  0
    0.0000    0.0000    0.0000 C   0  0  0  0  0  0  0  0  0  0  0  0
    0.0000    0.0000    0.0000 N   0  0  0  0  0  0  0  0  0  0  0  0
    0.0000    0.0000    0.0000 C   0  0  0  0  0  0  0  0  0  0  0  0
    0.0000    0.0000    0.0000 C   0  0  0  0  0  0  0  0  0  0  0  0
    0.0000    0.0000    0.0000 C   0  0  0  0  0  0  0  0  0  0  0  0
    0.0000    0.0000    0.0000 O   0  0  0  0  0  0  0  0  0  0  0  0
    0.0000    0.0000    0.0000 C   0  0  0  0  0  0  0  0  0  0  0  0
    0.0000    0.0000    0.0000 C   0  0  0  0  0  0  0  0  0  0  0  0
  1  2  1  0
  2  3  1  0
  3  4  2  0
  4  5  1  0
  5  6  1  0
  6  7  1  0
  5  8  2  0
  8  9  1  0
  9 10  1  0
 10 11  1  0
 11 12  2  0
 12 13  1  0
 13 14  2  0
 14 15  1  0
 15 16  2  0
 16 17  1  0
 16 18  1  0
 18 19  2  0
 19 20  1  0
 19 21  1  0
 21 22  2  0
  8 23  1  0
 23 24  1  0
 24 25  1  0
 23 26  2  0
 26  3  1  0
 22 11  1  0
 21 14  1  0
M  END
>  <pIC50>  (116) 
4.6

>  <ChEMBL_ID>  (116) 
CHEMBL114058

>  <document_journal>  (116) 
J. Med. Chem.

>  <bao_endpoint>  (116) 
BAO_0000190

>  <potential_duplicate>  (116) 
False

>  <uo_units>  (116) 
UO_0000065

>  <canonical_smiles>  (116) 
COc1cc(OC)c(CNc2ccc3nc(N)nc(N)c3c2)c(OC)c1

>  <parent_molecule_chembl_id>  (116) 
CHEMBL114058

>  <assay_type>  (116) 
B

>  <src_id>  (116) 
1

>  <ligand_efficiency>  (116) 
{u'le': u'0.24', u'bei': u'12.95', u'sei': u'3.92', u'lle': u'2.3'}

>  <standard_flag>  (116) 
True

>  <molecule_chembl_id>  (116) 
CHEMBL114058

>  <target_organism>  (116) 
Homo sapiens

>  <standard_units>  (116) 
nM

>  <record_id>  (116) 
218376

>  <document_chembl_id>  (116) 
CHEMBL1131583

>  <bao_format>  (116) 
BAO_0000357

>  <data_validity_description>  (116) 
None

>  <activity_id>  (116) 
692701

>  <standard_type>  (116) 
IC50

>  <target_chembl_id>  (116) 
CHEMBL202

>  <data_validity_comment>  (116) 
None

>  <published_value>  (116) 
25

>  <document_year>  (116) 
1998

>  <target_pref_name>  (116) 
Dihydrofolate reductase

>  <assay_chembl_id>  (116) 
CHEMBL668436

>  <standard_relation>  (116) 
=

>  <assay_description>  (116) 
Inhibitory activity against Dihydrofolate reductase from recombinant human (hDHFR)

>  <published_relation>  (116) 
=

>  <standard_value>  (116) 
25000

>  <qudt_units>  (116) 
http://www.openphacts.org/units/Nanomolar

>  <target_tax_id>  (116) 
9606

>  <bao_label>  (116) 
single protein format

>  <published_units>  (116) 
uM

>  <pchembl_value>  (116) 
4.6

>  <published_type>  (116) 
IC50

>  <activity_comment>  (116) 
None

$$$$

     RDKit          

 25 27  0  0  0  0  0  0  0  0999 V2000
    0.0000    0.0000    0.0000 C   0  0  0  0  0  0  0  0  0  0  0  0
    0.0000    0.0000    0.0000 O   0  0  0  0  0  0  0  0  0  0  0  0
    0.0000    0.0000    0.0000 C   0  0  0  0  0  0  0  0  0  0  0  0
    0.0000    0.0000    0.0000 C   0  0  0  0  0  0  0  0  0  0  0  0
    0.0000    0.0000    0.0000 C   0  0  0  0  0  0  0  0  0  0  0  0
    0.0000    0.0000    0.0000 C   0  0  0  0  0  0  0  0  0  0  0  0
    0.0000    0.0000    0.0000 C   0  0  0  0  0  0  0  0  0  0  0  0
    0.0000    0.0000    0.0000 N   0  0  0  0  0  0  0  0  0  0  0  0
    0.0000    0.0000    0.0000 C   0  0  0  0  0  0  0  0  0  0  0  0
    0.0000    0.0000    0.0000 C   0  0  0  0  0  0  0  0  0  0  0  0
    0.0000    0.0000    0.0000 C   0  0  0  0  0  0  0  0  0  0  0  0
    0.0000    0.0000    0.0000 C   0  0  0  0  0  0  0  0  0  0  0  0
    0.0000    0.0000    0.0000 C   0  0  0  0  0  0  0  0  0  0  0  0
    0.0000    0.0000    0.0000 N   0  0  0  0  0  0  0  0  0  0  0  0
    0.0000    0.0000    0.0000 C   0  0  0  0  0  0  0  0  0  0  0  0
    0.0000    0.0000    0.0000 N   0  0  0  0  0  0  0  0  0  0  0  0
    0.0000    0.0000    0.0000 N   0  0  0  0  0  0  0  0  0  0  0  0
    0.0000    0.0000    0.0000 C   0  0  0  0  0  0  0  0  0  0  0  0
    0.0000    0.0000    0.0000 N   0  0  0  0  0  0  0  0  0  0  0  0
    0.0000    0.0000    0.0000 C   0  0  0  0  0  0  0  0  0  0  0  0
    0.0000    0.0000    0.0000 C   0  0  0  0  0  0  0  0  0  0  0  0
    0.0000    0.0000    0.0000 C   0  0  0  0  0  0  0  0  0  0  0  0
    0.0000    0.0000    0.0000 O   0  0  0  0  0  0  0  0  0  0  0  0
    0.0000    0.0000    0.0000 C   0  0  0  0  0  0  0  0  0  0  0  0
    0.0000    0.0000    0.0000 C   0  0  0  0  0  0  0  0  0  0  0  0
  1  2  1  0
  2  3  1  0
  3  4  2  0
  4  5  1  0
  5  6  2  0
  6  7  1  0
  7  8  1  0
  8  9  1  0
  8 10  1  0
 10 11  2  0
 11 12  1  0
 12 13  2  0
 13 14  1  0
 14 15  2  0
 15 16  1  0
 15 17  1  0
 17 18  2  0
 18 19  1  0
 18 20  1  0
 20 21  2  0
  6 22  1  0
 22 23  1  0
 23 24  1  0
 22 25  2  0
 25  3  1  0
 21 10  1  0
 20 13  1  0
M  END
>  <pIC50>  (117) 
7.3

>  <ChEMBL_ID>  (117) 
CHEMBL115804

>  <document_journal>  (117) 
J. Med. Chem.

>  <bao_endpoint>  (117) 
BAO_0000190

>  <potential_duplicate>  (117) 
False

>  <uo_units>  (117) 
UO_0000065

>  <canonical_smiles>  (117) 
COc1ccc(CN(C)c2ccc3nc(N)nc(N)c3c2)c(OC)c1

>  <parent_molecule_chembl_id>  (117) 
CHEMBL115804

>  <assay_type>  (117) 
B

>  <src_id>  (117) 
1

>  <ligand_efficiency>  (117) 
{u'le': u'0.4', u'bei': u'21.51', u'sei': u'7.34', u'lle': u'4.63'}

>  <standard_flag>  (117) 
True

>  <molecule_chembl_id>  (117) 
CHEMBL115804

>  <target_organism>  (117) 
Homo sapiens

>  <standard_units>  (117) 
nM

>  <record_id>  (117) 
218391

>  <document_chembl_id>  (117) 
CHEMBL1131583

>  <bao_format>  (117) 
BAO_0000357

>  <data_validity_description>  (117) 
None

>  <activity_id>  (117) 
692708

>  <standard_type>  (117) 
IC50

>  <target_chembl_id>  (117) 
CHEMBL202

>  <data_validity_comment>  (117) 
None

>  <published_value>  (117) 
0.05

>  <document_year>  (117) 
1998

>  <target_pref_name>  (117) 
Dihydrofolate reductase

>  <assay_chembl_id>  (117) 
CHEMBL668436

>  <standard_relation>  (117) 
=

>  <assay_description>  (117) 
Inhibitory activity against Dihydrofolate reductase from recombinant human (hDHFR)

>  <published_relation>  (117) 
=

>  <standard_value>  (117) 
50

>  <qudt_units>  (117) 
http://www.openphacts.org/units/Nanomolar

>  <target_tax_id>  (117) 
9606

>  <bao_label>  (117) 
single protein format

>  <published_units>  (117) 
uM

>  <pchembl_value>  (117) 
7.3

>  <published_type>  (117) 
IC50

>  <activity_comment>  (117) 
None

$$$$

     RDKit          

 25 28  0  0  0  0  0  0  0  0999 V2000
    0.0000    0.0000    0.0000 C   0  0  0  0  0  0  0  0  0  0  0  0
    0.0000    0.0000    0.0000 N   0  0  0  0  0  0  0  0  0  0  0  0
    0.0000    0.0000    0.0000 C   0  0  0  0  0  0  0  0  0  0  0  0
    0.0000    0.0000    0.0000 C   0  0  0  0  0  0  0  0  0  0  0  0
    0.0000    0.0000    0.0000 C   0  0  0  0  0  0  0  0  0  0  0  0
    0.0000    0.0000    0.0000 C   0  0  0  0  0  0  0  0  0  0  0  0
    0.0000    0.0000    0.0000 C   0  0  0  0  0  0  0  0  0  0  0  0
    0.0000    0.0000    0.0000 C   0  0  0  0  0  0  0  0  0  0  0  0
    0.0000    0.0000    0.0000 C   0  0  0  0  0  0  0  0  0  0  0  0
    0.0000    0.0000    0.0000 C   0  0  0  0  0  0  0  0  0  0  0  0
    0.0000    0.0000    0.0000 C   0  0  0  0  0  0  0  0  0  0  0  0
    0.0000    0.0000    0.0000 C   0  0  0  0  0  0  0  0  0  0  0  0
    0.0000    0.0000    0.0000 C   0  0  0  0  0  0  0  0  0  0  0  0
    0.0000    0.0000    0.0000 C   0  0  0  0  0  0  0  0  0  0  0  0
    0.0000    0.0000    0.0000 C   0  0  0  0  0  0  0  0  0  0  0  0
    0.0000    0.0000    0.0000 C   0  0  0  0  0  0  0  0  0  0  0  0
    0.0000    0.0000    0.0000 C   0  0  0  0  0  0  0  0  0  0  0  0
    0.0000    0.0000    0.0000 N   0  0  0  0  0  0  0  0  0  0  0  0
    0.0000    0.0000    0.0000 C   0  0  0  0  0  0  0  0  0  0  0  0
    0.0000    0.0000    0.0000 N   0  0  0  0  0  0  0  0  0  0  0  0
    0.0000    0.0000    0.0000 N   0  0  0  0  0  0  0  0  0  0  0  0
    0.0000    0.0000    0.0000 C   0  0  0  0  0  0  0  0  0  0  0  0
    0.0000    0.0000    0.0000 N   0  0  0  0  0  0  0  0  0  0  0  0
    0.0000    0.0000    0.0000 C   0  0  0  0  0  0  0  0  0  0  0  0
    0.0000    0.0000    0.0000 C   0  0  0  0  0  0  0  0  0  0  0  0
  1  2  1  0
  2  3  1  0
  3  4  1  0
  4  5  2  0
  5  6  1  0
  6  7  2  0
  7  8  1  0
  8  9  1  0
  9 10  1  0
 10 11  1  0
 11 12  1  0
 12 13  1  0
  2 14  1  0
 14 15  2  0
 15 16  1  0
 16 17  2  0
 17 18  1  0
 18 19  2  0
 19 20  1  0
 19 21  1  0
 21 22  2  0
 22 23  1  0
 22 24  1  0
 24 25  2  0
 13  4  1  0
 13  8  2  0
 25 14  1  0
 24 17  1  0
M  END
>  <pIC50>  (118) 
7.57

>  <ChEMBL_ID>  (118) 
CHEMBL114354

>  <document_journal>  (118) 
J. Med. Chem.

>  <bao_endpoint>  (118) 
BAO_0000190

>  <potential_duplicate>  (118) 
False

>  <uo_units>  (118) 
UO_0000065

>  <canonical_smiles>  (118) 
CN(Cc1cccc2CCCCc12)c3ccc4nc(N)nc(N)c4c3

>  <parent_molecule_chembl_id>  (118) 
CHEMBL114354

>  <assay_type>  (118) 
B

>  <src_id>  (118) 
1

>  <ligand_efficiency>  (118) 
{u'le': u'0.41', u'bei': u'22.7', u'sei': u'9.34', u'lle': u'3.36'}

>  <standard_flag>  (118) 
True

>  <molecule_chembl_id>  (118) 
CHEMBL114354

>  <target_organism>  (118) 
Homo sapiens

>  <standard_units>  (118) 
nM

>  <record_id>  (118) 
218389

>  <document_chembl_id>  (118) 
CHEMBL1131583

>  <bao_format>  (118) 
BAO_0000357

>  <data_validity_description>  (118) 
None

>  <activity_id>  (118) 
696851

>  <standard_type>  (118) 
IC50

>  <target_chembl_id>  (118) 
CHEMBL202

>  <data_validity_comment>  (118) 
None

>  <published_value>  (118) 
0.027

>  <document_year>  (118) 
1998

>  <target_pref_name>  (118) 
Dihydrofolate reductase

>  <assay_chembl_id>  (118) 
CHEMBL668436

>  <standard_relation>  (118) 
=

>  <assay_description>  (118) 
Inhibitory activity against Dihydrofolate reductase from recombinant human (hDHFR)

>  <published_relation>  (118) 
=

>  <standard_value>  (118) 
27

>  <qudt_units>  (118) 
http://www.openphacts.org/units/Nanomolar

>  <target_tax_id>  (118) 
9606

>  <bao_label>  (118) 
single protein format

>  <published_units>  (118) 
uM

>  <pchembl_value>  (118) 
7.57

>  <published_type>  (118) 
IC50

>  <activity_comment>  (118) 
None

$$$$

     RDKit          

 26 28  0  0  0  0  0  0  0  0999 V2000
    0.0000    0.0000    0.0000 C   0  0  0  0  0  0  0  0  0  0  0  0
    0.0000    0.0000    0.0000 O   0  0  0  0  0  0  0  0  0  0  0  0
    0.0000    0.0000    0.0000 C   0  0  0  0  0  0  0  0  0  0  0  0
    0.0000    0.0000    0.0000 C   0  0  0  0  0  0  0  0  0  0  0  0
    0.0000    0.0000    0.0000 C   0  0  0  0  0  0  0  0  0  0  0  0
    0.0000    0.0000    0.0000 C   0  0  0  0  0  0  0  0  0  0  0  0
    0.0000    0.0000    0.0000 N   0  0  0  0  0  0  0  0  0  0  0  0
    0.0000    0.0000    0.0000 C   0  0  0  0  0  0  0  0  0  0  0  0
    0.0000    0.0000    0.0000 C   0  0  0  0  0  0  0  0  0  0  0  0
    0.0000    0.0000    0.0000 C   0  0  0  0  0  0  0  0  0  0  0  0
    0.0000    0.0000    0.0000 C   0  0  0  0  0  0  0  0  0  0  0  0
    0.0000    0.0000    0.0000 N   0  0  0  0  0  0  0  0  0  0  0  0
    0.0000    0.0000    0.0000 C   0  0  0  0  0  0  0  0  0  0  0  0
    0.0000    0.0000    0.0000 N   0  0  0  0  0  0  0  0  0  0  0  0
    0.0000    0.0000    0.0000 N   0  0  0  0  0  0  0  0  0  0  0  0
    0.0000    0.0000    0.0000 C   0  0  0  0  0  0  0  0  0  0  0  0
    0.0000    0.0000    0.0000 N   0  0  0  0  0  0  0  0  0  0  0  0
    0.0000    0.0000    0.0000 C   0  0  0  0  0  0  0  0  0  0  0  0
    0.0000    0.0000    0.0000 C   0  0  0  0  0  0  0  0  0  0  0  0
    0.0000    0.0000    0.0000 C   0  0  0  0  0  0  0  0  0  0  0  0
    0.0000    0.0000    0.0000 C   0  0  0  0  0  0  0  0  0  0  0  0
    0.0000    0.0000    0.0000 O   0  0  0  0  0  0  0  0  0  0  0  0
    0.0000    0.0000    0.0000 C   0  0  0  0  0  0  0  0  0  0  0  0
    0.0000    0.0000    0.0000 C   0  0  0  0  0  0  0  0  0  0  0  0
    0.0000    0.0000    0.0000 O   0  0  0  0  0  0  0  0  0  0  0  0
    0.0000    0.0000    0.0000 C   0  0  0  0  0  0  0  0  0  0  0  0
  1  2  1  0
  2  3  1  0
  3  4  2  0
  4  5  1  0
  5  6  1  0
  6  7  1  0
  7  8  1  0
  8  9  2  0
  9 10  1  0
 10 11  2  0
 11 12  1  0
 12 13  2  0
 13 14  1  0
 13 15  1  0
 15 16  2  0
 16 17  1  0
 16 18  1  0
 18 19  2  0
  5 20  2  0
 20 21  1  0
 21 22  1  0
 22 23  1  0
 21 24  2  0
 24 25  1  0
 25 26  1  0
 24  3  1  0
 19  8  1  0
 18 11  1  0
M  END
>  <pIC50>  (119) 
4.64

>  <ChEMBL_ID>  (119) 
CHEMBL113999

>  <document_journal>  (119) 
J. Med. Chem.

>  <bao_endpoint>  (119) 
BAO_0000190

>  <potential_duplicate>  (119) 
False

>  <uo_units>  (119) 
UO_0000065

>  <canonical_smiles>  (119) 
COc1cc(CNc2ccc3nc(N)nc(N)c3c2)cc(OC)c1OC

>  <parent_molecule_chembl_id>  (119) 
CHEMBL113999

>  <assay_type>  (119) 
B

>  <src_id>  (119) 
1

>  <ligand_efficiency>  (119) 
{u'le': u'0.24', u'bei': u'13.05', u'sei': u'3.95', u'lle': u'2.34'}

>  <standard_flag>  (119) 
True

>  <molecule_chembl_id>  (119) 
CHEMBL113999

>  <target_organism>  (119) 
Homo sapiens

>  <standard_units>  (119) 
nM

>  <record_id>  (119) 
218379

>  <document_chembl_id>  (119) 
CHEMBL1131583

>  <bao_format>  (119) 
BAO_0000357

>  <data_validity_description>  (119) 
None

>  <activity_id>  (119) 
699780

>  <standard_type>  (119) 
IC50

>  <target_chembl_id>  (119) 
CHEMBL202

>  <data_validity_comment>  (119) 
None

>  <published_value>  (119) 
23

>  <document_year>  (119) 
1998

>  <target_pref_name>  (119) 
Dihydrofolate reductase

>  <assay_chembl_id>  (119) 
CHEMBL668436

>  <standard_relation>  (119) 
=

>  <assay_description>  (119) 
Inhibitory activity against Dihydrofolate reductase from recombinant human (hDHFR)

>  <published_relation>  (119) 
=

>  <standard_value>  (119) 
23000

>  <qudt_units>  (119) 
http://www.openphacts.org/units/Nanomolar

>  <target_tax_id>  (119) 
9606

>  <bao_label>  (119) 
single protein format

>  <published_units>  (119) 
uM

>  <pchembl_value>  (119) 
4.64

>  <published_type>  (119) 
IC50

>  <activity_comment>  (119) 
None

$$$$

     RDKit          

 24 26  0  0  0  0  0  0  0  0999 V2000
    0.0000    0.0000    0.0000 C   0  0  0  0  0  0  0  0  0  0  0  0
    0.0000    0.0000    0.0000 O   0  0  0  0  0  0  0  0  0  0  0  0
    0.0000    0.0000    0.0000 C   0  0  0  0  0  0  0  0  0  0  0  0
    0.0000    0.0000    0.0000 C   0  0  0  0  0  0  0  0  0  0  0  0
    0.0000    0.0000    0.0000 C   0  0  0  0  0  0  0  0  0  0  0  0
    0.0000    0.0000    0.0000 C   0  0  0  0  0  0  0  0  0  0  0  0
    0.0000    0.0000    0.0000 O   0  0  0  0  0  0  0  0  0  0  0  0
    0.0000    0.0000    0.0000 C   0  0  0  0  0  0  0  0  0  0  0  0
    0.0000    0.0000    0.0000 C   0  0  0  0  0  0  0  0  0  0  0  0
    0.0000    0.0000    0.0000 C   0  0  0  0  0  0  0  0  0  0  0  0
    0.0000    0.0000    0.0000 N   0  0  0  0  0  0  0  0  0  0  0  0
    0.0000    0.0000    0.0000 C   0  0  0  0  0  0  0  0  0  0  0  0
    0.0000    0.0000    0.0000 C   0  0  0  0  0  0  0  0  0  0  0  0
    0.0000    0.0000    0.0000 N   0  0  0  0  0  0  0  0  0  0  0  0
    0.0000    0.0000    0.0000 C   0  0  0  0  0  0  0  0  0  0  0  0
    0.0000    0.0000    0.0000 N   0  0  0  0  0  0  0  0  0  0  0  0
    0.0000    0.0000    0.0000 C   0  0  0  0  0  0  0  0  0  0  0  0
    0.0000    0.0000    0.0000 N   0  0  0  0  0  0  0  0  0  0  0  0
    0.0000    0.0000    0.0000 N   0  0  0  0  0  0  0  0  0  0  0  0
    0.0000    0.0000    0.0000 C   0  0  0  0  0  0  0  0  0  0  0  0
    0.0000    0.0000    0.0000 N   0  0  0  0  0  0  0  0  0  0  0  0
    0.0000    0.0000    0.0000 C   0  0  0  0  0  0  0  0  0  0  0  0
    0.0000    0.0000    0.0000 C   0  0  0  0  0  0  0  0  0  0  0  0
    0.0000    0.0000    0.0000 C   0  0  0  0  0  0  0  0  0  0  0  0
  1  2  1  0
  2  3  1  0
  3  4  2  0
  4  5  1  0
  5  6  2  0
  6  7  1  0
  7  8  1  0
  6  9  1  0
  9 10  1  0
 10 11  1  0
 11 12  1  0
 12 13  2  0
 13 14  1  0
 14 15  2  0
 15 16  1  0
 16 17  2  0
 17 18  1  0
 17 19  1  0
 19 20  2  0
 20 21  1  0
 20 22  1  0
 22 23  2  0
  9 24  2  0
 24  3  1  0
 23 12  1  0
 22 15  1  0
M  END
>  <pIC50>  (120) 
4.89

>  <ChEMBL_ID>  (120) 
CHEMBL32708

>  <document_journal>  (120) 
J. Med. Chem.

>  <bao_endpoint>  (120) 
BAO_0000190

>  <potential_duplicate>  (120) 
True

>  <uo_units>  (120) 
UO_0000065

>  <canonical_smiles>  (120) 
COc1ccc(OC)c(CNc2cnc3nc(N)nc(N)c3c2)c1

>  <parent_molecule_chembl_id>  (120) 
CHEMBL32708

>  <assay_type>  (120) 
B

>  <src_id>  (120) 
1

>  <ligand_efficiency>  (120) 
{u'le': u'0.28', u'bei': u'14.97', u'sei': u'4.03', u'lle': u'3.53'}

>  <standard_flag>  (120) 
True

>  <molecule_chembl_id>  (120) 
CHEMBL32708

>  <target_organism>  (120) 
Homo sapiens

>  <standard_units>  (120) 
nM

>  <record_id>  (120) 
218388

>  <document_chembl_id>  (120) 
CHEMBL1131583

>  <bao_format>  (120) 
BAO_0000357

>  <data_validity_description>  (120) 
None

>  <activity_id>  (120) 
699784

>  <standard_type>  (120) 
IC50

>  <target_chembl_id>  (120) 
CHEMBL202

>  <data_validity_comment>  (120) 
None

>  <published_value>  (120) 
13

>  <document_year>  (120) 
1998

>  <target_pref_name>  (120) 
Dihydrofolate reductase

>  <assay_chembl_id>  (120) 
CHEMBL668436

>  <standard_relation>  (120) 
=

>  <assay_description>  (120) 
Inhibitory activity against Dihydrofolate reductase from recombinant human (hDHFR)

>  <published_relation>  (120) 
=

>  <standard_value>  (120) 
13000

>  <qudt_units>  (120) 
http://www.openphacts.org/units/Nanomolar

>  <target_tax_id>  (120) 
9606

>  <bao_label>  (120) 
single protein format

>  <published_units>  (120) 
uM

>  <pchembl_value>  (120) 
4.89

>  <published_type>  (120) 
IC50

>  <activity_comment>  (120) 
None

$$$$

     RDKit          

 25 27  0  0  0  0  0  0  0  0999 V2000
    0.0000    0.0000    0.0000 C   0  0  0  0  0  0  0  0  0  0  0  0
    0.0000    0.0000    0.0000 O   0  0  0  0  0  0  0  0  0  0  0  0
    0.0000    0.0000    0.0000 C   0  0  0  0  0  0  0  0  0  0  0  0
    0.0000    0.0000    0.0000 C   0  0  0  0  0  0  0  0  0  0  0  0
    0.0000    0.0000    0.0000 C   0  0  0  0  0  0  0  0  0  0  0  0
    0.0000    0.0000    0.0000 C   0  0  0  0  0  0  0  0  0  0  0  0
    0.0000    0.0000    0.0000 N   0  0  0  0  0  0  0  0  0  0  0  0
    0.0000    0.0000    0.0000 C   0  0  0  0  0  0  0  0  0  0  0  0
    0.0000    0.0000    0.0000 C   0  0  0  0  0  0  0  0  0  0  0  0
    0.0000    0.0000    0.0000 C   0  0  0  0  0  0  0  0  0  0  0  0
    0.0000    0.0000    0.0000 N   0  0  0  0  0  0  0  0  0  0  0  0
    0.0000    0.0000    0.0000 C   0  0  0  0  0  0  0  0  0  0  0  0
    0.0000    0.0000    0.0000 N   0  0  0  0  0  0  0  0  0  0  0  0
    0.0000    0.0000    0.0000 C   0  0  0  0  0  0  0  0  0  0  0  0
    0.0000    0.0000    0.0000 N   0  0  0  0  0  0  0  0  0  0  0  0
    0.0000    0.0000    0.0000 N   0  0  0  0  0  0  0  0  0  0  0  0
    0.0000    0.0000    0.0000 C   0  0  0  0  0  0  0  0  0  0  0  0
    0.0000    0.0000    0.0000 N   0  0  0  0  0  0  0  0  0  0  0  0
    0.0000    0.0000    0.0000 C   0  0  0  0  0  0  0  0  0  0  0  0
    0.0000    0.0000    0.0000 C   0  0  0  0  0  0  0  0  0  0  0  0
    0.0000    0.0000    0.0000 C   0  0  0  0  0  0  0  0  0  0  0  0
    0.0000    0.0000    0.0000 C   0  0  0  0  0  0  0  0  0  0  0  0
    0.0000    0.0000    0.0000 O   0  0  0  0  0  0  0  0  0  0  0  0
    0.0000    0.0000    0.0000 C   0  0  0  0  0  0  0  0  0  0  0  0
    0.0000    0.0000    0.0000 C   0  0  0  0  0  0  0  0  0  0  0  0
  1  2  1  0
  2  3  1  0
  3  4  2  0
  4  5  1  0
  5  6  1  0
  6  7  1  0
  7  8  1  0
  7  9  1  0
  9 10  2  0
 10 11  1  0
 11 12  2  0
 12 13  1  0
 13 14  2  0
 14 15  1  0
 14 16  1  0
 16 17  2  0
 17 18  1  0
 17 19  1  0
 19 20  2  0
  5 21  2  0
 21 22  1  0
 22 23  1  0
 23 24  1  0
 22 25  2  0
 25  3  1  0
 20  9  1  0
 19 12  1  0
M  END
>  <pIC50>  (121) 
5.54

>  <ChEMBL_ID>  (121) 
CHEMBL36245

>  <document_journal>  (121) 
J. Med. Chem.

>  <bao_endpoint>  (121) 
BAO_0000190

>  <potential_duplicate>  (121) 
True

>  <uo_units>  (121) 
UO_0000065

>  <canonical_smiles>  (121) 
COc1cc(CN(C)c2cnc3nc(N)nc(N)c3c2)cc(OC)c1

>  <parent_molecule_chembl_id>  (121) 
CHEMBL36245

>  <assay_type>  (121) 
B

>  <src_id>  (121) 
1

>  <ligand_efficiency>  (121) 
{u'le': u'0.3', u'bei': u'16.27', u'sei': u'4.93', u'lle': u'3.83'}

>  <standard_flag>  (121) 
True

>  <molecule_chembl_id>  (121) 
CHEMBL36245

>  <target_organism>  (121) 
Homo sapiens

>  <standard_units>  (121) 
nM

>  <record_id>  (121) 
218385

>  <document_chembl_id>  (121) 
CHEMBL1131583

>  <bao_format>  (121) 
BAO_0000357

>  <data_validity_description>  (121) 
None

>  <activity_id>  (121) 
699787

>  <standard_type>  (121) 
IC50

>  <target_chembl_id>  (121) 
CHEMBL202

>  <data_validity_comment>  (121) 
None

>  <published_value>  (121) 
2.9

>  <document_year>  (121) 
1998

>  <target_pref_name>  (121) 
Dihydrofolate reductase

>  <assay_chembl_id>  (121) 
CHEMBL668436

>  <standard_relation>  (121) 
=

>  <assay_description>  (121) 
Inhibitory activity against Dihydrofolate reductase from recombinant human (hDHFR)

>  <published_relation>  (121) 
=

>  <standard_value>  (121) 
2900

>  <qudt_units>  (121) 
http://www.openphacts.org/units/Nanomolar

>  <target_tax_id>  (121) 
9606

>  <bao_label>  (121) 
single protein format

>  <published_units>  (121) 
uM

>  <pchembl_value>  (121) 
5.54

>  <published_type>  (121) 
IC50

>  <activity_comment>  (121) 
None

$$$$

     RDKit          

 27 29  0  0  0  0  0  0  0  0999 V2000
    0.0000    0.0000    0.0000 C   0  0  0  0  0  0  0  0  0  0  0  0
    0.0000    0.0000    0.0000 O   0  0  0  0  0  0  0  0  0  0  0  0
    0.0000    0.0000    0.0000 C   0  0  0  0  0  0  0  0  0  0  0  0
    0.0000    0.0000    0.0000 C   0  0  0  0  0  0  0  0  0  0  0  0
    0.0000    0.0000    0.0000 C   0  0  0  0  0  0  0  0  0  0  0  0
    0.0000    0.0000    0.0000 C   0  0  0  0  0  0  0  0  0  0  0  0
    0.0000    0.0000    0.0000 C   0  0  0  0  0  0  0  0  0  0  0  0
    0.0000    0.0000    0.0000 N   0  0  0  0  0  0  0  0  0  0  0  0
    0.0000    0.0000    0.0000 C   0  0  0  0  0  0  0  0  0  0  0  0
    0.0000    0.0000    0.0000 C   0  0  0  0  0  0  0  0  0  0  0  0
    0.0000    0.0000    0.0000 C   0  0  0  0  0  0  0  0  0  0  0  0
    0.0000    0.0000    0.0000 C   0  0  0  0  0  0  0  0  0  0  0  0
    0.0000    0.0000    0.0000 C   0  0  0  0  0  0  0  0  0  0  0  0
    0.0000    0.0000    0.0000 N   0  0  0  0  0  0  0  0  0  0  0  0
    0.0000    0.0000    0.0000 C   0  0  0  0  0  0  0  0  0  0  0  0
    0.0000    0.0000    0.0000 N   0  0  0  0  0  0  0  0  0  0  0  0
    0.0000    0.0000    0.0000 N   0  0  0  0  0  0  0  0  0  0  0  0
    0.0000    0.0000    0.0000 C   0  0  0  0  0  0  0  0  0  0  0  0
    0.0000    0.0000    0.0000 N   0  0  0  0  0  0  0  0  0  0  0  0
    0.0000    0.0000    0.0000 C   0  0  0  0  0  0  0  0  0  0  0  0
    0.0000    0.0000    0.0000 C   0  0  0  0  0  0  0  0  0  0  0  0
    0.0000    0.0000    0.0000 C   0  0  0  0  0  0  0  0  0  0  0  0
    0.0000    0.0000    0.0000 O   0  0  0  0  0  0  0  0  0  0  0  0
    0.0000    0.0000    0.0000 C   0  0  0  0  0  0  0  0  0  0  0  0
    0.0000    0.0000    0.0000 C   0  0  0  0  0  0  0  0  0  0  0  0
    0.0000    0.0000    0.0000 O   0  0  0  0  0  0  0  0  0  0  0  0
    0.0000    0.0000    0.0000 C   0  0  0  0  0  0  0  0  0  0  0  0
  1  2  1  0
  2  3  1  0
  3  4  2  0
  4  5  1  0
  5  6  2  0
  6  7  1  0
  7  8  1  0
  8  9  1  0
  8 10  1  0
 10 11  2  0
 11 12  1  0
 12 13  2  0
 13 14  1  0
 14 15  2  0
 15 16  1  0
 15 17  1  0
 17 18  2  0
 18 19  1  0
 18 20  1  0
 20 21  2  0
  6 22  1  0
 22 23  1  0
 23 24  1  0
 22 25  2  0
 25 26  1  0
 26 27  1  0
 25  3  1  0
 21 10  1  0
 20 13  1  0
M  END
>  <pIC50>  (122) 
6.85

>  <ChEMBL_ID>  (122) 
CHEMBL117750

>  <document_journal>  (122) 
J. Med. Chem.

>  <bao_endpoint>  (122) 
BAO_0000190

>  <potential_duplicate>  (122) 
False

>  <uo_units>  (122) 
UO_0000065

>  <canonical_smiles>  (122) 
COc1ccc(CN(C)c2ccc3nc(N)nc(N)c3c2)c(OC)c1OC

>  <parent_molecule_chembl_id>  (122) 
CHEMBL117750

>  <assay_type>  (122) 
B

>  <src_id>  (122) 
1

>  <ligand_efficiency>  (122) 
{u'le': u'0.35', u'bei': u'18.55', u'sei': u'6.3', u'lle': u'4.2'}

>  <standard_flag>  (122) 
True

>  <molecule_chembl_id>  (122) 
CHEMBL117750

>  <target_organism>  (122) 
Homo sapiens

>  <standard_units>  (122) 
nM

>  <record_id>  (122) 
218390

>  <document_chembl_id>  (122) 
CHEMBL1131583

>  <bao_format>  (122) 
BAO_0000357

>  <data_validity_description>  (122) 
None

>  <activity_id>  (122) 
700978

>  <standard_type>  (122) 
IC50

>  <target_chembl_id>  (122) 
CHEMBL202

>  <data_validity_comment>  (122) 
None

>  <published_value>  (122) 
0.14

>  <document_year>  (122) 
1998

>  <target_pref_name>  (122) 
Dihydrofolate reductase

>  <assay_chembl_id>  (122) 
CHEMBL668436

>  <standard_relation>  (122) 
=

>  <assay_description>  (122) 
Inhibitory activity against Dihydrofolate reductase from recombinant human (hDHFR)

>  <published_relation>  (122) 
=

>  <standard_value>  (122) 
140

>  <qudt_units>  (122) 
http://www.openphacts.org/units/Nanomolar

>  <target_tax_id>  (122) 
9606

>  <bao_label>  (122) 
single protein format

>  <published_units>  (122) 
uM

>  <pchembl_value>  (122) 
6.85

>  <published_type>  (122) 
IC50

>  <activity_comment>  (122) 
None

$$$$

     RDKit          

 24 26  0  0  0  0  0  0  0  0999 V2000
    0.0000    0.0000    0.0000 C   0  0  0  0  0  0  0  0  0  0  0  0
    0.0000    0.0000    0.0000 O   0  0  0  0  0  0  0  0  0  0  0  0
    0.0000    0.0000    0.0000 C   0  0  0  0  0  0  0  0  0  0  0  0
    0.0000    0.0000    0.0000 C   0  0  0  0  0  0  0  0  0  0  0  0
    0.0000    0.0000    0.0000 C   0  0  0  0  0  0  0  0  0  0  0  0
    0.0000    0.0000    0.0000 C   0  0  0  0  0  0  0  0  0  0  0  0
    0.0000    0.0000    0.0000 N   0  0  0  0  0  0  0  0  0  0  0  0
    0.0000    0.0000    0.0000 C   0  0  0  0  0  0  0  0  0  0  0  0
    0.0000    0.0000    0.0000 C   0  0  0  0  0  0  0  0  0  0  0  0
    0.0000    0.0000    0.0000 C   0  0  0  0  0  0  0  0  0  0  0  0
    0.0000    0.0000    0.0000 C   0  0  0  0  0  0  0  0  0  0  0  0
    0.0000    0.0000    0.0000 N   0  0  0  0  0  0  0  0  0  0  0  0
    0.0000    0.0000    0.0000 C   0  0  0  0  0  0  0  0  0  0  0  0
    0.0000    0.0000    0.0000 N   0  0  0  0  0  0  0  0  0  0  0  0
    0.0000    0.0000    0.0000 N   0  0  0  0  0  0  0  0  0  0  0  0
    0.0000    0.0000    0.0000 C   0  0  0  0  0  0  0  0  0  0  0  0
    0.0000    0.0000    0.0000 N   0  0  0  0  0  0  0  0  0  0  0  0
    0.0000    0.0000    0.0000 C   0  0  0  0  0  0  0  0  0  0  0  0
    0.0000    0.0000    0.0000 C   0  0  0  0  0  0  0  0  0  0  0  0
    0.0000    0.0000    0.0000 C   0  0  0  0  0  0  0  0  0  0  0  0
    0.0000    0.0000    0.0000 C   0  0  0  0  0  0  0  0  0  0  0  0
    0.0000    0.0000    0.0000 O   0  0  0  0  0  0  0  0  0  0  0  0
    0.0000    0.0000    0.0000 C   0  0  0  0  0  0  0  0  0  0  0  0
    0.0000    0.0000    0.0000 C   0  0  0  0  0  0  0  0  0  0  0  0
  1  2  1  0
  2  3  1  0
  3  4  2  0
  4  5  1  0
  5  6  1  0
  6  7  1  0
  7  8  1  0
  8  9  2  0
  9 10  1  0
 10 11  2  0
 11 12  1  0
 12 13  2  0
 13 14  1  0
 13 15  1  0
 15 16  2  0
 16 17  1  0
 16 18  1  0
 18 19  2  0
  5 20  2  0
 20 21  1  0
 21 22  1  0
 22 23  1  0
 21 24  2  0
 24  3  1  0
 19  8  1  0
 18 11  1  0
M  END
>  <pIC50>  (123) 
4.55

>  <ChEMBL_ID>  (123) 
CHEMBL116815

>  <document_journal>  (123) 
J. Med. Chem.

>  <bao_endpoint>  (123) 
BAO_0000190

>  <potential_duplicate>  (123) 
False

>  <uo_units>  (123) 
UO_0000065

>  <canonical_smiles>  (123) 
COc1cc(CNc2ccc3nc(N)nc(N)c3c2)cc(OC)c1

>  <parent_molecule_chembl_id>  (123) 
CHEMBL116815

>  <assay_type>  (123) 
B

>  <src_id>  (123) 
1

>  <ligand_efficiency>  (123) 
{u'le': u'0.26', u'bei': u'13.99', u'sei': u'4.2', u'lle': u'2.24'}

>  <standard_flag>  (123) 
True

>  <molecule_chembl_id>  (123) 
CHEMBL116815

>  <target_organism>  (123) 
Homo sapiens

>  <standard_units>  (123) 
nM

>  <record_id>  (123) 
218381

>  <document_chembl_id>  (123) 
CHEMBL1131583

>  <bao_format>  (123) 
BAO_0000357

>  <data_validity_description>  (123) 
None

>  <activity_id>  (123) 
702255

>  <standard_type>  (123) 
IC50

>  <target_chembl_id>  (123) 
CHEMBL202

>  <data_validity_comment>  (123) 
None

>  <published_value>  (123) 
28

>  <document_year>  (123) 
1998

>  <target_pref_name>  (123) 
Dihydrofolate reductase

>  <assay_chembl_id>  (123) 
CHEMBL668436

>  <standard_relation>  (123) 
=

>  <assay_description>  (123) 
Inhibitory activity against Dihydrofolate reductase from recombinant human (hDHFR)

>  <published_relation>  (123) 
=

>  <standard_value>  (123) 
28000

>  <qudt_units>  (123) 
http://www.openphacts.org/units/Nanomolar

>  <target_tax_id>  (123) 
9606

>  <bao_label>  (123) 
single protein format

>  <published_units>  (123) 
uM

>  <pchembl_value>  (123) 
4.55

>  <published_type>  (123) 
IC50

>  <activity_comment>  (123) 
None

$$$$

     RDKit          

 26 28  0  0  0  0  0  0  0  0999 V2000
    0.0000    0.0000    0.0000 C   0  0  0  0  0  0  0  0  0  0  0  0
    0.0000    0.0000    0.0000 O   0  0  0  0  0  0  0  0  0  0  0  0
    0.0000    0.0000    0.0000 C   0  0  0  0  0  0  0  0  0  0  0  0
    0.0000    0.0000    0.0000 C   0  0  0  0  0  0  0  0  0  0  0  0
    0.0000    0.0000    0.0000 C   0  0  0  0  0  0  0  0  0  0  0  0
    0.0000    0.0000    0.0000 C   0  0  0  0  0  0  0  0  0  0  0  0
    0.0000    0.0000    0.0000 C   0  0  0  0  0  0  0  0  0  0  0  0
    0.0000    0.0000    0.0000 N   0  0  0  0  0  0  0  0  0  0  0  0
    0.0000    0.0000    0.0000 C   0  0  0  0  0  0  0  0  0  0  0  0
    0.0000    0.0000    0.0000 C   0  0  0  0  0  0  0  0  0  0  0  0
    0.0000    0.0000    0.0000 C   0  0  0  0  0  0  0  0  0  0  0  0
    0.0000    0.0000    0.0000 C   0  0  0  0  0  0  0  0  0  0  0  0
    0.0000    0.0000    0.0000 N   0  0  0  0  0  0  0  0  0  0  0  0
    0.0000    0.0000    0.0000 C   0  0  0  0  0  0  0  0  0  0  0  0
    0.0000    0.0000    0.0000 N   0  0  0  0  0  0  0  0  0  0  0  0
    0.0000    0.0000    0.0000 N   0  0  0  0  0  0  0  0  0  0  0  0
    0.0000    0.0000    0.0000 C   0  0  0  0  0  0  0  0  0  0  0  0
    0.0000    0.0000    0.0000 N   0  0  0  0  0  0  0  0  0  0  0  0
    0.0000    0.0000    0.0000 C   0  0  0  0  0  0  0  0  0  0  0  0
    0.0000    0.0000    0.0000 C   0  0  0  0  0  0  0  0  0  0  0  0
    0.0000    0.0000    0.0000 C   0  0  0  0  0  0  0  0  0  0  0  0
    0.0000    0.0000    0.0000 O   0  0  0  0  0  0  0  0  0  0  0  0
    0.0000    0.0000    0.0000 C   0  0  0  0  0  0  0  0  0  0  0  0
    0.0000    0.0000    0.0000 C   0  0  0  0  0  0  0  0  0  0  0  0
    0.0000    0.0000    0.0000 O   0  0  0  0  0  0  0  0  0  0  0  0
    0.0000    0.0000    0.0000 C   0  0  0  0  0  0  0  0  0  0  0  0
  1  2  1  0
  2  3  1  0
  3  4  2  0
  4  5  1  0
  5  6  2  0
  6  7  1  0
  7  8  1  0
  8  9  1  0
  9 10  2  0
 10 11  1  0
 11 12  2  0
 12 13  1  0
 13 14  2  0
 14 15  1  0
 14 16  1  0
 16 17  2  0
 17 18  1  0
 17 19  1  0
 19 20  2  0
  6 21  1  0
 21 22  1  0
 22 23  1  0
 21 24  2  0
 24 25  1  0
 25 26  1  0
 24  3  1  0
 20  9  1  0
 19 12  1  0
M  END
>  <pIC50>  (124) 
4.57

>  <ChEMBL_ID>  (124) 
CHEMBL116637

>  <document_journal>  (124) 
J. Med. Chem.

>  <bao_endpoint>  (124) 
BAO_0000190

>  <potential_duplicate>  (124) 
False

>  <uo_units>  (124) 
UO_0000065

>  <canonical_smiles>  (124) 
COc1ccc(CNc2ccc3nc(N)nc(N)c3c2)c(OC)c1OC

>  <parent_molecule_chembl_id>  (124) 
CHEMBL116637

>  <assay_type>  (124) 
B

>  <src_id>  (124) 
1

>  <ligand_efficiency>  (124) 
{u'le': u'0.24', u'bei': u'12.86', u'sei': u'3.89', u'lle': u'2.27'}

>  <standard_flag>  (124) 
True

>  <molecule_chembl_id>  (124) 
CHEMBL116637

>  <target_organism>  (124) 
Homo sapiens

>  <standard_units>  (124) 
nM

>  <record_id>  (124) 
218378

>  <document_chembl_id>  (124) 
CHEMBL1131583

>  <bao_format>  (124) 
BAO_0000357

>  <data_validity_description>  (124) 
None

>  <activity_id>  (124) 
703556

>  <standard_type>  (124) 
IC50

>  <target_chembl_id>  (124) 
CHEMBL202

>  <data_validity_comment>  (124) 
None

>  <published_value>  (124) 
27

>  <document_year>  (124) 
1998

>  <target_pref_name>  (124) 
Dihydrofolate reductase

>  <assay_chembl_id>  (124) 
CHEMBL668436

>  <standard_relation>  (124) 
=

>  <assay_description>  (124) 
Inhibitory activity against Dihydrofolate reductase from recombinant human (hDHFR)

>  <published_relation>  (124) 
=

>  <standard_value>  (124) 
27000

>  <qudt_units>  (124) 
http://www.openphacts.org/units/Nanomolar

>  <target_tax_id>  (124) 
9606

>  <bao_label>  (124) 
single protein format

>  <published_units>  (124) 
uM

>  <pchembl_value>  (124) 
4.57

>  <published_type>  (124) 
IC50

>  <activity_comment>  (124) 
None

$$$$

     RDKit          

 24 26  0  0  0  0  0  0  0  0999 V2000
    0.0000    0.0000    0.0000 C   0  0  0  0  0  0  0  0  0  0  0  0
    0.0000    0.0000    0.0000 O   0  0  0  0  0  0  0  0  0  0  0  0
    0.0000    0.0000    0.0000 C   0  0  0  0  0  0  0  0  0  0  0  0
    0.0000    0.0000    0.0000 C   0  0  0  0  0  0  0  0  0  0  0  0
    0.0000    0.0000    0.0000 C   0  0  0  0  0  0  0  0  0  0  0  0
    0.0000    0.0000    0.0000 C   0  0  0  0  0  0  0  0  0  0  0  0
    0.0000    0.0000    0.0000 O   0  0  0  0  0  0  0  0  0  0  0  0
    0.0000    0.0000    0.0000 C   0  0  0  0  0  0  0  0  0  0  0  0
    0.0000    0.0000    0.0000 C   0  0  0  0  0  0  0  0  0  0  0  0
    0.0000    0.0000    0.0000 C   0  0  0  0  0  0  0  0  0  0  0  0
    0.0000    0.0000    0.0000 N   0  0  0  0  0  0  0  0  0  0  0  0
    0.0000    0.0000    0.0000 C   0  0  0  0  0  0  0  0  0  0  0  0
    0.0000    0.0000    0.0000 C   0  0  0  0  0  0  0  0  0  0  0  0
    0.0000    0.0000    0.0000 C   0  0  0  0  0  0  0  0  0  0  0  0
    0.0000    0.0000    0.0000 C   0  0  0  0  0  0  0  0  0  0  0  0
    0.0000    0.0000    0.0000 N   0  0  0  0  0  0  0  0  0  0  0  0
    0.0000    0.0000    0.0000 C   0  0  0  0  0  0  0  0  0  0  0  0
    0.0000    0.0000    0.0000 N   0  0  0  0  0  0  0  0  0  0  0  0
    0.0000    0.0000    0.0000 N   0  0  0  0  0  0  0  0  0  0  0  0
    0.0000    0.0000    0.0000 C   0  0  0  0  0  0  0  0  0  0  0  0
    0.0000    0.0000    0.0000 N   0  0  0  0  0  0  0  0  0  0  0  0
    0.0000    0.0000    0.0000 C   0  0  0  0  0  0  0  0  0  0  0  0
    0.0000    0.0000    0.0000 C   0  0  0  0  0  0  0  0  0  0  0  0
    0.0000    0.0000    0.0000 C   0  0  0  0  0  0  0  0  0  0  0  0
  1  2  1  0
  2  3  1  0
  3  4  2  0
  4  5  1  0
  5  6  2  0
  6  7  1  0
  7  8  1  0
  6  9  1  0
  9 10  1  0
 10 11  1  0
 11 12  1  0
 12 13  2  0
 13 14  1  0
 14 15  2  0
 15 16  1  0
 16 17  2  0
 17 18  1  0
 17 19  1  0
 19 20  2  0
 20 21  1  0
 20 22  1  0
 22 23  2  0
  9 24  2  0
 24  3  1  0
 23 12  1  0
 22 15  1  0
M  END
>  <pIC50>  (125) 
4.55

>  <ChEMBL_ID>  (125) 
CHEMBL116816

>  <document_journal>  (125) 
J. Med. Chem.

>  <bao_endpoint>  (125) 
BAO_0000190

>  <potential_duplicate>  (125) 
False

>  <uo_units>  (125) 
UO_0000065

>  <canonical_smiles>  (125) 
COc1ccc(OC)c(CNc2ccc3nc(N)nc(N)c3c2)c1

>  <parent_molecule_chembl_id>  (125) 
CHEMBL116816

>  <assay_type>  (125) 
B

>  <src_id>  (125) 
1

>  <ligand_efficiency>  (125) 
{u'le': u'0.26', u'bei': u'13.99', u'sei': u'4.2', u'lle': u'2.24'}

>  <standard_flag>  (125) 
True

>  <molecule_chembl_id>  (125) 
CHEMBL116816

>  <target_organism>  (125) 
Homo sapiens

>  <standard_units>  (125) 
nM

>  <record_id>  (125) 
218382

>  <document_chembl_id>  (125) 
CHEMBL1131583

>  <bao_format>  (125) 
BAO_0000357

>  <data_validity_description>  (125) 
None

>  <activity_id>  (125) 
704841

>  <standard_type>  (125) 
IC50

>  <target_chembl_id>  (125) 
CHEMBL202

>  <data_validity_comment>  (125) 
None

>  <published_value>  (125) 
28

>  <document_year>  (125) 
1998

>  <target_pref_name>  (125) 
Dihydrofolate reductase

>  <assay_chembl_id>  (125) 
CHEMBL668436

>  <standard_relation>  (125) 
=

>  <assay_description>  (125) 
Inhibitory activity against Dihydrofolate reductase from recombinant human (hDHFR)

>  <published_relation>  (125) 
=

>  <standard_value>  (125) 
28000

>  <qudt_units>  (125) 
http://www.openphacts.org/units/Nanomolar

>  <target_tax_id>  (125) 
9606

>  <bao_label>  (125) 
single protein format

>  <published_units>  (125) 
uM

>  <pchembl_value>  (125) 
4.55

>  <published_type>  (125) 
IC50

>  <activity_comment>  (125) 
None

$$$$

     RDKit          

 25 27  0  0  0  0  0  0  0  0999 V2000
    0.0000    0.0000    0.0000 C   0  0  0  0  0  0  0  0  0  0  0  0
    0.0000    0.0000    0.0000 O   0  0  0  0  0  0  0  0  0  0  0  0
    0.0000    0.0000    0.0000 C   0  0  0  0  0  0  0  0  0  0  0  0
    0.0000    0.0000    0.0000 C   0  0  0  0  0  0  0  0  0  0  0  0
    0.0000    0.0000    0.0000 C   0  0  0  0  0  0  0  0  0  0  0  0
    0.0000    0.0000    0.0000 C   0  0  0  0  0  0  0  0  0  0  0  0
    0.0000    0.0000    0.0000 N   0  0  0  0  0  0  0  0  0  0  0  0
    0.0000    0.0000    0.0000 C   0  0  0  0  0  0  0  0  0  0  0  0
    0.0000    0.0000    0.0000 C   0  0  0  0  0  0  0  0  0  0  0  0
    0.0000    0.0000    0.0000 C   0  0  0  0  0  0  0  0  0  0  0  0
    0.0000    0.0000    0.0000 C   0  0  0  0  0  0  0  0  0  0  0  0
    0.0000    0.0000    0.0000 C   0  0  0  0  0  0  0  0  0  0  0  0
    0.0000    0.0000    0.0000 N   0  0  0  0  0  0  0  0  0  0  0  0
    0.0000    0.0000    0.0000 C   0  0  0  0  0  0  0  0  0  0  0  0
    0.0000    0.0000    0.0000 N   0  0  0  0  0  0  0  0  0  0  0  0
    0.0000    0.0000    0.0000 N   0  0  0  0  0  0  0  0  0  0  0  0
    0.0000    0.0000    0.0000 C   0  0  0  0  0  0  0  0  0  0  0  0
    0.0000    0.0000    0.0000 N   0  0  0  0  0  0  0  0  0  0  0  0
    0.0000    0.0000    0.0000 C   0  0  0  0  0  0  0  0  0  0  0  0
    0.0000    0.0000    0.0000 C   0  0  0  0  0  0  0  0  0  0  0  0
    0.0000    0.0000    0.0000 C   0  0  0  0  0  0  0  0  0  0  0  0
    0.0000    0.0000    0.0000 C   0  0  0  0  0  0  0  0  0  0  0  0
    0.0000    0.0000    0.0000 O   0  0  0  0  0  0  0  0  0  0  0  0
    0.0000    0.0000    0.0000 C   0  0  0  0  0  0  0  0  0  0  0  0
    0.0000    0.0000    0.0000 C   0  0  0  0  0  0  0  0  0  0  0  0
  1  2  1  0
  2  3  1  0
  3  4  2  0
  4  5  1  0
  5  6  1  0
  6  7  1  0
  7  8  1  0
  7  9  1  0
  9 10  2  0
 10 11  1  0
 11 12  2  0
 12 13  1  0
 13 14  2  0
 14 15  1  0
 14 16  1  0
 16 17  2  0
 17 18  1  0
 17 19  1  0
 19 20  2  0
  5 21  2  0
 21 22  1  0
 22 23  1  0
 23 24  1  0
 22 25  2  0
 25  3  1  0
 20  9  1  0
 19 12  1  0
M  END
>  <pIC50>  (126) 
7.96

>  <ChEMBL_ID>  (126) 
CHEMBL113816

>  <document_journal>  (126) 
J. Med. Chem.

>  <bao_endpoint>  (126) 
BAO_0000190

>  <potential_duplicate>  (126) 
False

>  <uo_units>  (126) 
UO_0000065

>  <canonical_smiles>  (126) 
COc1cc(CN(C)c2ccc3nc(N)nc(N)c3c2)cc(OC)c1

>  <parent_molecule_chembl_id>  (126) 
CHEMBL113816

>  <assay_type>  (126) 
B

>  <src_id>  (126) 
1

>  <ligand_efficiency>  (126) 
{u'le': u'0.43', u'bei': u'23.45', u'sei': u'8', u'lle': u'5.29'}

>  <standard_flag>  (126) 
True

>  <molecule_chembl_id>  (126) 
CHEMBL113816

>  <target_organism>  (126) 
Homo sapiens

>  <standard_units>  (126) 
nM

>  <record_id>  (126) 
218373

>  <document_chembl_id>  (126) 
CHEMBL1131583

>  <bao_format>  (126) 
BAO_0000357

>  <data_validity_description>  (126) 
None

>  <activity_id>  (126) 
706156

>  <standard_type>  (126) 
IC50

>  <target_chembl_id>  (126) 
CHEMBL202

>  <data_validity_comment>  (126) 
None

>  <published_value>  (126) 
0.011

>  <document_year>  (126) 
1998

>  <target_pref_name>  (126) 
Dihydrofolate reductase

>  <assay_chembl_id>  (126) 
CHEMBL668436

>  <standard_relation>  (126) 
=

>  <assay_description>  (126) 
Inhibitory activity against Dihydrofolate reductase from recombinant human (hDHFR)

>  <published_relation>  (126) 
=

>  <standard_value>  (126) 
11

>  <qudt_units>  (126) 
http://www.openphacts.org/units/Nanomolar

>  <target_tax_id>  (126) 
9606

>  <bao_label>  (126) 
single protein format

>  <published_units>  (126) 
uM

>  <pchembl_value>  (126) 
7.96

>  <published_type>  (126) 
IC50

>  <activity_comment>  (126) 
None

$$$$

     RDKit          

 20 22  0  0  0  0  0  0  0  0999 V2000
    0.0000    0.0000    0.0000 N   0  0  0  0  0  0  0  0  0  0  0  0
    0.0000    0.0000    0.0000 C   0  0  0  0  0  0  0  0  0  0  0  0
    0.0000    0.0000    0.0000 N   0  0  0  0  0  0  0  0  0  0  0  0
    0.0000    0.0000    0.0000 C   0  0  0  0  0  0  0  0  0  0  0  0
    0.0000    0.0000    0.0000 N   0  0  0  0  0  0  0  0  0  0  0  0
    0.0000    0.0000    0.0000 C   0  0  0  0  0  0  0  0  0  0  0  0
    0.0000    0.0000    0.0000 C   0  0  0  0  0  0  0  0  0  0  0  0
    0.0000    0.0000    0.0000 C   0  0  0  0  0  0  0  0  0  0  0  0
    0.0000    0.0000    0.0000 N   0  0  0  0  0  0  0  0  0  0  0  0
    0.0000    0.0000    0.0000 C   0  0  0  0  0  0  0  0  0  0  0  0
    0.0000    0.0000    0.0000 C   0  0  0  0  0  0  0  0  0  0  0  0
    0.0000    0.0000    0.0000 C   0  0  0  0  0  0  0  0  0  0  0  0
    0.0000    0.0000    0.0000 C   0  0  0  0  0  0  0  0  0  0  0  0
    0.0000    0.0000    0.0000 C   0  0  0  0  0  0  0  0  0  0  0  0
    0.0000    0.0000    0.0000 C   0  0  0  0  0  0  0  0  0  0  0  0
    0.0000    0.0000    0.0000 C   0  0  0  0  0  0  0  0  0  0  0  0
    0.0000    0.0000    0.0000 C   0  0  0  0  0  0  0  0  0  0  0  0
    0.0000    0.0000    0.0000 C   0  0  0  0  0  0  0  0  0  0  0  0
    0.0000    0.0000    0.0000 C   0  0  0  0  0  0  0  0  0  0  0  0
    0.0000    0.0000    0.0000 N   0  0  0  0  0  0  0  0  0  0  0  0
  1  2  1  0
  2  3  2  0
  3  4  1  0
  4  5  1  0
  4  6  2  0
  6  7  1  0
  7  8  2  0
  8  9  1  0
  9 10  1  0
 10 11  1  0
 11 12  2  0
 12 13  1  0
 13 14  2  0
 14 15  1  0
 15 16  2  0
  8 17  1  0
 17 18  2  0
 18 19  1  0
 19 20  2  0
 20  2  1  0
 19  6  1  0
 16 11  1  0
M  END
>  <pIC50>  (127) 
5.62

>  <ChEMBL_ID>  (127) 
CHEMBL115474

>  <document_journal>  (127) 
J. Med. Chem.

>  <bao_endpoint>  (127) 
BAO_0000190

>  <potential_duplicate>  (127) 
False

>  <uo_units>  (127) 
UO_0000065

>  <canonical_smiles>  (127) 
Nc1nc(N)c2cc(NCc3ccccc3)ccc2n1

>  <parent_molecule_chembl_id>  (127) 
CHEMBL115474

>  <assay_type>  (127) 
B

>  <src_id>  (127) 
1

>  <ligand_efficiency>  (127) 
{u'le': u'0.38', u'bei': u'21.18', u'sei': u'6.25', u'lle': u'3.27'}

>  <standard_flag>  (127) 
True

>  <molecule_chembl_id>  (127) 
CHEMBL115474

>  <target_organism>  (127) 
Homo sapiens

>  <standard_units>  (127) 
nM

>  <record_id>  (127) 
218372

>  <document_chembl_id>  (127) 
CHEMBL1131583

>  <bao_format>  (127) 
BAO_0000357

>  <data_validity_description>  (127) 
None

>  <activity_id>  (127) 
708758

>  <standard_type>  (127) 
IC50

>  <target_chembl_id>  (127) 
CHEMBL202

>  <data_validity_comment>  (127) 
None

>  <published_value>  (127) 
2.4

>  <document_year>  (127) 
1998

>  <target_pref_name>  (127) 
Dihydrofolate reductase

>  <assay_chembl_id>  (127) 
CHEMBL668436

>  <standard_relation>  (127) 
=

>  <assay_description>  (127) 
Inhibitory activity against Dihydrofolate reductase from recombinant human (hDHFR)

>  <published_relation>  (127) 
=

>  <standard_value>  (127) 
2400

>  <qudt_units>  (127) 
http://www.openphacts.org/units/Nanomolar

>  <target_tax_id>  (127) 
9606

>  <bao_label>  (127) 
single protein format

>  <published_units>  (127) 
uM

>  <pchembl_value>  (127) 
5.62

>  <published_type>  (127) 
IC50

>  <activity_comment>  (127) 
None

$$$$

     RDKit          

 26 28  0  0  0  0  0  0  0  0999 V2000
    0.0000    0.0000    0.0000 C   0  0  0  0  0  0  0  0  0  0  0  0
    0.0000    0.0000    0.0000 O   0  0  0  0  0  0  0  0  0  0  0  0
    0.0000    0.0000    0.0000 C   0  0  0  0  0  0  0  0  0  0  0  0
    0.0000    0.0000    0.0000 C   0  0  0  0  0  0  0  0  0  0  0  0
    0.0000    0.0000    0.0000 C   0  0  0  0  0  0  0  0  0  0  0  0
    0.0000    0.0000    0.0000 O   0  0  0  0  0  0  0  0  0  0  0  0
    0.0000    0.0000    0.0000 C   0  0  0  0  0  0  0  0  0  0  0  0
    0.0000    0.0000    0.0000 C   0  0  0  0  0  0  0  0  0  0  0  0
    0.0000    0.0000    0.0000 O   0  0  0  0  0  0  0  0  0  0  0  0
    0.0000    0.0000    0.0000 C   0  0  0  0  0  0  0  0  0  0  0  0
    0.0000    0.0000    0.0000 C   0  0  0  0  0  0  0  0  0  0  0  0
    0.0000    0.0000    0.0000 C   0  0  0  0  0  0  0  0  0  0  0  0
    0.0000    0.0000    0.0000 C   0  0  0  0  0  0  0  0  0  0  0  0
    0.0000    0.0000    0.0000 N   0  0  0  0  0  0  0  0  0  0  0  0
    0.0000    0.0000    0.0000 C   0  0  0  0  0  0  0  0  0  0  0  0
    0.0000    0.0000    0.0000 C   0  0  0  0  0  0  0  0  0  0  0  0
    0.0000    0.0000    0.0000 C   0  0  0  0  0  0  0  0  0  0  0  0
    0.0000    0.0000    0.0000 C   0  0  0  0  0  0  0  0  0  0  0  0
    0.0000    0.0000    0.0000 N   0  0  0  0  0  0  0  0  0  0  0  0
    0.0000    0.0000    0.0000 C   0  0  0  0  0  0  0  0  0  0  0  0
    0.0000    0.0000    0.0000 N   0  0  0  0  0  0  0  0  0  0  0  0
    0.0000    0.0000    0.0000 N   0  0  0  0  0  0  0  0  0  0  0  0
    0.0000    0.0000    0.0000 C   0  0  0  0  0  0  0  0  0  0  0  0
    0.0000    0.0000    0.0000 N   0  0  0  0  0  0  0  0  0  0  0  0
    0.0000    0.0000    0.0000 C   0  0  0  0  0  0  0  0  0  0  0  0
    0.0000    0.0000    0.0000 C   0  0  0  0  0  0  0  0  0  0  0  0
  1  2  1  0
  2  3  1  0
  3  4  2  0
  4  5  1  0
  5  6  1  0
  6  7  1  0
  5  8  2  0
  8  9  1  0
  9 10  1  0
  8 11  1  0
 11 12  2  0
 12 13  1  0
 13 14  1  0
 14 15  1  0
 15 16  2  0
 16 17  1  0
 17 18  2  0
 18 19  1  0
 19 20  2  0
 20 21  1  0
 20 22  1  0
 22 23  2  0
 23 24  1  0
 23 25  1  0
 25 26  2  0
 12  3  1  0
 26 15  1  0
 25 18  1  0
M  END
>  <pIC50>  (128) 
5.85

>  <ChEMBL_ID>  (128) 
CHEMBL114833

>  <document_journal>  (128) 
J. Med. Chem.

>  <bao_endpoint>  (128) 
BAO_0000190

>  <potential_duplicate>  (128) 
False

>  <uo_units>  (128) 
UO_0000065

>  <canonical_smiles>  (128) 
COc1cc(OC)c(OC)cc1CNc2ccc3nc(N)nc(N)c3c2

>  <parent_molecule_chembl_id>  (128) 
CHEMBL114833

>  <assay_type>  (128) 
B

>  <src_id>  (128) 
1

>  <ligand_efficiency>  (128) 
{u'le': u'0.31', u'bei': u'16.47', u'sei': u'4.98', u'lle': u'3.55'}

>  <standard_flag>  (128) 
True

>  <molecule_chembl_id>  (128) 
CHEMBL114833

>  <target_organism>  (128) 
Homo sapiens

>  <standard_units>  (128) 
nM

>  <record_id>  (128) 
218377

>  <document_chembl_id>  (128) 
CHEMBL1131583

>  <bao_format>  (128) 
BAO_0000357

>  <data_validity_description>  (128) 
None

>  <activity_id>  (128) 
711394

>  <standard_type>  (128) 
IC50

>  <target_chembl_id>  (128) 
CHEMBL202

>  <data_validity_comment>  (128) 
None

>  <published_value>  (128) 
1.4

>  <document_year>  (128) 
1998

>  <target_pref_name>  (128) 
Dihydrofolate reductase

>  <assay_chembl_id>  (128) 
CHEMBL668436

>  <standard_relation>  (128) 
=

>  <assay_description>  (128) 
Inhibitory activity against Dihydrofolate reductase from recombinant human (hDHFR)

>  <published_relation>  (128) 
=

>  <standard_value>  (128) 
1400

>  <qudt_units>  (128) 
http://www.openphacts.org/units/Nanomolar

>  <target_tax_id>  (128) 
9606

>  <bao_label>  (128) 
single protein format

>  <published_units>  (128) 
uM

>  <pchembl_value>  (128) 
5.85

>  <published_type>  (128) 
IC50

>  <activity_comment>  (128) 
None

$$$$

     RDKit          

 34 36  0  0  0  0  0  0  0  0999 V2000
    0.0000    0.0000    0.0000 O   0  0  0  0  0  0  0  0  0  0  0  0
    0.0000    0.0000    0.0000 C   0  0  0  0  0  0  0  0  0  0  0  0
    0.0000    0.0000    0.0000 N   0  0  0  0  0  0  0  0  0  0  0  0
    0.0000    0.0000    0.0000 C   0  0  0  0  0  0  0  0  0  0  0  0
    0.0000    0.0000    0.0000 C   0  0  0  0  0  0  0  0  0  0  0  0
    0.0000    0.0000    0.0000 C   0  0  0  0  0  0  0  0  0  0  0  0
    0.0000    0.0000    0.0000 C   0  0  0  0  0  0  0  0  0  0  0  0
    0.0000    0.0000    0.0000 C   0  0  0  0  0  0  0  0  0  0  0  0
    0.0000    0.0000    0.0000 C   0  0  0  0  0  0  0  0  0  0  0  0
    0.0000    0.0000    0.0000 N   0  0  0  0  0  0  0  0  0  0  0  0
    0.0000    0.0000    0.0000 N   0  0  0  0  0  0  0  0  0  0  0  0
    0.0000    0.0000    0.0000 C   0  0  0  0  0  0  0  0  0  0  0  0
    0.0000    0.0000    0.0000 C   0  0  0  0  0  0  0  0  0  0  0  0
    0.0000    0.0000    0.0000 C   0  0  0  0  0  0  0  0  0  0  0  0
    0.0000    0.0000    0.0000 C   0  0  0  0  0  0  0  0  0  0  0  0
    0.0000    0.0000    0.0000 N   0  0  0  0  0  0  0  0  0  0  0  0
    0.0000    0.0000    0.0000 C   0  0  0  0  0  0  0  0  0  0  0  0
    0.0000    0.0000    0.0000 C   0  0  0  0  0  0  0  0  0  0  0  0
    0.0000    0.0000    0.0000 C   0  0  0  0  0  0  0  0  0  0  0  0
    0.0000    0.0000    0.0000 C   0  0  0  0  0  0  0  0  0  0  0  0
    0.0000    0.0000    0.0000 C   0  0  0  0  0  0  0  0  0  0  0  0
    0.0000    0.0000    0.0000 C   0  0  0  0  0  0  0  0  0  0  0  0
    0.0000    0.0000    0.0000 C   0  0  0  0  0  0  0  0  0  0  0  0
    0.0000    0.0000    0.0000 O   0  0  0  0  0  0  0  0  0  0  0  0
    0.0000    0.0000    0.0000 N   0  0  0  0  0  0  0  0  0  0  0  0
    0.0000    0.0000    0.0000 C   0  0  0  0  0  0  0  0  0  0  0  0
    0.0000    0.0000    0.0000 C   0  0  0  0  0  0  0  0  0  0  0  0
    0.0000    0.0000    0.0000 C   0  0  0  0  0  0  0  0  0  0  0  0
    0.0000    0.0000    0.0000 C   0  0  0  0  0  0  0  0  0  0  0  0
    0.0000    0.0000    0.0000 O   0  0  0  0  0  0  0  0  0  0  0  0
    0.0000    0.0000    0.0000 O   0  0  0  0  0  0  0  0  0  0  0  0
    0.0000    0.0000    0.0000 C   0  0  0  0  0  0  0  0  0  0  0  0
    0.0000    0.0000    0.0000 O   0  0  0  0  0  0  0  0  0  0  0  0
    0.0000    0.0000    0.0000 O   0  0  0  0  0  0  0  0  0  0  0  0
  1  2  2  0
  2  3  1  0
  2  4  1  0
  4  5  2  0
  4  6  1  0
  5  7  1  0
  5  8  1  0
  9  6  2  0
  6 10  1  0
 11  8  1  0
  8 12  2  0
 12  9  1  0
 10 13  2  0
 14 11  1  0
 11 15  1  0
 13 16  1  0
 13  3  1  0
 15 17  1  0
 17 18  2  0
 19 17  1  0
 18 20  1  0
 21 19  2  0
 20 22  2  0
 22 21  1  0
 22 23  1  0
 23 24  2  0
 23 25  1  0
 25 26  1  0
 26 27  1  0
 26 28  1  0
 27 29  1  0
 28 30  2  0
 28 31  1  0
 29 32  1  0
 32 33  2  0
 32 34  1  0
M  END
>  <pIC50>  (129) 
5.5

>  <ChEMBL_ID>  (129) 
CHEMBL80135

>  <document_journal>  (129) 
J. Med. Chem.

>  <bao_endpoint>  (129) 
BAO_0000190

>  <potential_duplicate>  (129) 
False

>  <uo_units>  (129) 
UO_0000065

>  <canonical_smiles>  (129) 
CN(Cc1ccc(cc1)C(=O)NC(CCC(=O)O)C(=O)O)c2ccc3nc(N)nc(O)c3c2C

>  <parent_molecule_chembl_id>  (129) 
CHEMBL80135

>  <assay_type>  (129) 
B

>  <src_id>  (129) 
1

>  <ligand_efficiency>  (129) 
{u'le': u'0.22', u'bei': u'11.75', u'sei': u'3.07', u'lle': u'2.92'}

>  <standard_flag>  (129) 
True

>  <molecule_chembl_id>  (129) 
CHEMBL80135

>  <target_organism>  (129) 
Homo sapiens

>  <standard_units>  (129) 
nM

>  <record_id>  (129) 
270922

>  <document_chembl_id>  (129) 
CHEMBL1124218

>  <bao_format>  (129) 
BAO_0000219

>  <data_validity_description>  (129) 
None

>  <activity_id>  (129) 
720381

>  <standard_type>  (129) 
IC50

>  <target_chembl_id>  (129) 
CHEMBL202

>  <data_validity_comment>  (129) 
None

>  <published_value>  (129) 
3.2

>  <document_year>  (129) 
1988

>  <target_pref_name>  (129) 
Dihydrofolate reductase

>  <assay_chembl_id>  (129) 
CHEMBL669446

>  <standard_relation>  (129) 
=

>  <assay_description>  (129) 
Inhibitory activity against dihydrofolate reductase (DHFR) obtained from human WIL2 cells

>  <published_relation>  (129) 
=

>  <standard_value>  (129) 
3200

>  <qudt_units>  (129) 
http://www.openphacts.org/units/Nanomolar

>  <target_tax_id>  (129) 
9606

>  <bao_label>  (129) 
cell-based format

>  <published_units>  (129) 
uM

>  <pchembl_value>  (129) 
5.5

>  <published_type>  (129) 
I50

>  <activity_comment>  (129) 
None

$$$$

     RDKit          

 33 35  0  0  0  0  0  0  0  0999 V2000
    0.0000    0.0000    0.0000 C   0  0  0  0  0  0  0  0  0  0  0  0
    0.0000    0.0000    0.0000 C   0  0  0  0  0  0  0  0  0  0  0  0
    0.0000    0.0000    0.0000 C   0  0  0  0  0  0  0  0  0  0  0  0
    0.0000    0.0000    0.0000 N   0  0  0  0  0  0  0  0  0  0  0  0
    0.0000    0.0000    0.0000 C   0  0  0  0  0  0  0  0  0  0  0  0
    0.0000    0.0000    0.0000 C   0  0  0  0  0  0  0  0  0  0  0  0
    0.0000    0.0000    0.0000 C   0  0  0  0  0  0  0  0  0  0  0  0
    0.0000    0.0000    0.0000 C   0  0  0  0  0  0  0  0  0  0  0  0
    0.0000    0.0000    0.0000 C   0  0  0  0  0  0  0  0  0  0  0  0
    0.0000    0.0000    0.0000 C   0  0  0  0  0  0  0  0  0  0  0  0
    0.0000    0.0000    0.0000 C   0  0  0  0  0  0  0  0  0  0  0  0
    0.0000    0.0000    0.0000 C   0  0  0  0  0  0  0  0  0  0  0  0
    0.0000    0.0000    0.0000 O   0  0  0  0  0  0  0  0  0  0  0  0
    0.0000    0.0000    0.0000 N   0  0  0  0  0  0  0  0  0  0  0  0
    0.0000    0.0000    0.0000 C   0  0  0  0  0  0  0  0  0  0  0  0
    0.0000    0.0000    0.0000 C   0  0  0  0  0  0  0  0  0  0  0  0
    0.0000    0.0000    0.0000 C   0  0  0  0  0  0  0  0  0  0  0  0
    0.0000    0.0000    0.0000 C   0  0  0  0  0  0  0  0  0  0  0  0
    0.0000    0.0000    0.0000 O   0  0  0  0  0  0  0  0  0  0  0  0
    0.0000    0.0000    0.0000 O   0  0  0  0  0  0  0  0  0  0  0  0
    0.0000    0.0000    0.0000 C   0  0  0  0  0  0  0  0  0  0  0  0
    0.0000    0.0000    0.0000 O   0  0  0  0  0  0  0  0  0  0  0  0
    0.0000    0.0000    0.0000 O   0  0  0  0  0  0  0  0  0  0  0  0
    0.0000    0.0000    0.0000 C   0  0  0  0  0  0  0  0  0  0  0  0
    0.0000    0.0000    0.0000 C   0  0  0  0  0  0  0  0  0  0  0  0
    0.0000    0.0000    0.0000 C   0  0  0  0  0  0  0  0  0  0  0  0
    0.0000    0.0000    0.0000 N   0  0  0  0  0  0  0  0  0  0  0  0
    0.0000    0.0000    0.0000 C   0  0  0  0  0  0  0  0  0  0  0  0
    0.0000    0.0000    0.0000 N   0  0  0  0  0  0  0  0  0  0  0  0
    0.0000    0.0000    0.0000 N   0  0  0  0  0  0  0  0  0  0  0  0
    0.0000    0.0000    0.0000 C   0  0  0  0  0  0  0  0  0  0  0  0
    0.0000    0.0000    0.0000 N   0  0  0  0  0  0  0  0  0  0  0  0
    0.0000    0.0000    0.0000 C   0  0  0  0  0  0  0  0  0  0  0  0
  1  2  1  0
  2  3  2  0
  3  4  1  0
  4  5  1  0
  5  6  1  0
  6  7  2  0
  7  8  1  0
  8  9  2  0
  9 10  1  0
 10 11  2  0
  9 12  1  0
 12 13  2  0
 12 14  1  0
 14 15  1  0
 15 16  1  0
 16 17  1  0
 17 18  1  0
 18 19  2  0
 18 20  1  0
 15 21  1  0
 21 22  2  0
 21 23  1  0
  3 24  1  0
 24 25  2  0
 25 26  1  0
 26 27  2  0
 27 28  1  0
 28 29  1  0
 28 30  2  0
 30 31  1  0
 31 32  1  0
 31 33  2  0
 33  2  1  0
 11  6  1  0
 33 26  1  0
M  END
>  <pIC50>  (130) 
8.39

>  <ChEMBL_ID>  (130) 
CHEMBL36866

>  <document_journal>  (130) 
J. Med. Chem.

>  <bao_endpoint>  (130) 
BAO_0000190

>  <potential_duplicate>  (130) 
False

>  <uo_units>  (130) 
UO_0000065

>  <canonical_smiles>  (130) 
Cc1c(NCc2ccc(cc2)C(=O)NC(CCC(=O)O)C(=O)O)ccc3nc(N)nc(N)c13

>  <parent_molecule_chembl_id>  (130) 
CHEMBL36866

>  <assay_type>  (130) 
B

>  <src_id>  (130) 
1

>  <ligand_efficiency>  (130) 
{u'le': u'0.35', u'bei': u'18.54', u'sei': u'4.33', u'lle': u'6.68'}

>  <standard_flag>  (130) 
True

>  <molecule_chembl_id>  (130) 
CHEMBL36866

>  <target_organism>  (130) 
Homo sapiens

>  <standard_units>  (130) 
nM

>  <record_id>  (130) 
270919

>  <document_chembl_id>  (130) 
CHEMBL1124218

>  <bao_format>  (130) 
BAO_0000219

>  <data_validity_description>  (130) 
None

>  <activity_id>  (130) 
721408

>  <standard_type>  (130) 
IC50

>  <target_chembl_id>  (130) 
CHEMBL202

>  <data_validity_comment>  (130) 
None

>  <published_value>  (130) 
0.0041

>  <document_year>  (130) 
1988

>  <target_pref_name>  (130) 
Dihydrofolate reductase

>  <assay_chembl_id>  (130) 
CHEMBL669446

>  <standard_relation>  (130) 
=

>  <assay_description>  (130) 
Inhibitory activity against dihydrofolate reductase (DHFR) obtained from human WIL2 cells

>  <published_relation>  (130) 
=

>  <standard_value>  (130) 
4.1

>  <qudt_units>  (130) 
http://www.openphacts.org/units/Nanomolar

>  <target_tax_id>  (130) 
9606

>  <bao_label>  (130) 
cell-based format

>  <published_units>  (130) 
uM

>  <pchembl_value>  (130) 
8.39

>  <published_type>  (130) 
I50

>  <activity_comment>  (130) 
None

$$$$

     RDKit          

 32 34  0  0  0  0  0  0  0  0999 V2000
    0.0000    0.0000    0.0000 N   0  0  0  0  0  0  0  0  0  0  0  0
    0.0000    0.0000    0.0000 C   0  0  0  0  0  0  0  0  0  0  0  0
    0.0000    0.0000    0.0000 N   0  0  0  0  0  0  0  0  0  0  0  0
    0.0000    0.0000    0.0000 C   0  0  0  0  0  0  0  0  0  0  0  0
    0.0000    0.0000    0.0000 O   0  0  0  0  0  0  0  0  0  0  0  0
    0.0000    0.0000    0.0000 C   0  0  0  0  0  0  0  0  0  0  0  0
    0.0000    0.0000    0.0000 C   0  0  0  0  0  0  0  0  0  0  0  0
    0.0000    0.0000    0.0000 C   0  0  0  0  0  0  0  0  0  0  0  0
    0.0000    0.0000    0.0000 C   0  0  0  0  0  0  0  0  0  0  0  0
    0.0000    0.0000    0.0000 C   0  0  0  0  0  0  0  0  0  0  0  0
    0.0000    0.0000    0.0000 C   0  0  0  0  0  0  0  0  0  0  0  0
    0.0000    0.0000    0.0000 N   0  0  0  0  0  0  0  0  0  0  0  0
    0.0000    0.0000    0.0000 C   0  0  0  0  0  0  0  0  0  0  0  0
    0.0000    0.0000    0.0000 C   0  0  0  0  0  0  0  0  0  0  0  0
    0.0000    0.0000    0.0000 C   0  0  0  0  0  0  0  0  0  0  0  0
    0.0000    0.0000    0.0000 C   0  0  0  0  0  0  0  0  0  0  0  0
    0.0000    0.0000    0.0000 C   0  0  0  0  0  0  0  0  0  0  0  0
    0.0000    0.0000    0.0000 C   0  0  0  0  0  0  0  0  0  0  0  0
    0.0000    0.0000    0.0000 C   0  0  0  0  0  0  0  0  0  0  0  0
    0.0000    0.0000    0.0000 C   0  0  0  0  0  0  0  0  0  0  0  0
    0.0000    0.0000    0.0000 O   0  0  0  0  0  0  0  0  0  0  0  0
    0.0000    0.0000    0.0000 N   0  0  0  0  0  0  0  0  0  0  0  0
    0.0000    0.0000    0.0000 C   0  0  0  0  0  0  0  0  0  0  0  0
    0.0000    0.0000    0.0000 C   0  0  0  0  0  0  0  0  0  0  0  0
    0.0000    0.0000    0.0000 C   0  0  0  0  0  0  0  0  0  0  0  0
    0.0000    0.0000    0.0000 C   0  0  0  0  0  0  0  0  0  0  0  0
    0.0000    0.0000    0.0000 O   0  0  0  0  0  0  0  0  0  0  0  0
    0.0000    0.0000    0.0000 O   0  0  0  0  0  0  0  0  0  0  0  0
    0.0000    0.0000    0.0000 C   0  0  0  0  0  0  0  0  0  0  0  0
    0.0000    0.0000    0.0000 O   0  0  0  0  0  0  0  0  0  0  0  0
    0.0000    0.0000    0.0000 O   0  0  0  0  0  0  0  0  0  0  0  0
    0.0000    0.0000    0.0000 N   0  0  0  0  0  0  0  0  0  0  0  0
  1  2  2  0
  2  3  1  0
  3  4  1  0
  4  5  2  0
  6  1  1  0
  7  6  2  0
  6  8  1  0
  9  7  1  0
  4  8  1  0
  8 10  2  0
 11  9  2  0
 10 11  1  0
 11 12  1  0
 12 13  1  0
 13 14  1  0
 14 15  2  0
 16 14  1  0
 15 17  1  0
 18 16  2  0
 17 19  2  0
 19 18  1  0
 19 20  1  0
 20 21  2  0
 20 22  1  0
 22 23  1  0
 23 24  1  0
 23 25  1  0
 24 26  1  0
 25 27  2  0
 25 28  1  0
 26 29  1  0
 29 30  2  0
 29 31  1  0
 32  2  1  0
M  END
>  <pIC50>  (131) 
6.96

>  <ChEMBL_ID>  (131) 
CHEMBL36739

>  <document_journal>  (131) 
J. Med. Chem.

>  <bao_endpoint>  (131) 
BAO_0000190

>  <potential_duplicate>  (131) 
False

>  <uo_units>  (131) 
UO_0000065

>  <canonical_smiles>  (131) 
NC1=NC(=O)c2cc(NCc3ccc(cc3)C(=O)NC(CCC(=O)O)C(=O)O)ccc2N1

>  <parent_molecule_chembl_id>  (131) 
CHEMBL36739

>  <assay_type>  (131) 
B

>  <src_id>  (131) 
1

>  <ligand_efficiency>  (131) 
{u'le': u'0.3', u'bei': u'15.84', u'sei': u'3.8', u'lle': u'6.07'}

>  <standard_flag>  (131) 
True

>  <molecule_chembl_id>  (131) 
CHEMBL36739

>  <target_organism>  (131) 
Homo sapiens

>  <standard_units>  (131) 
nM

>  <record_id>  (131) 
270909

>  <document_chembl_id>  (131) 
CHEMBL1124218

>  <bao_format>  (131) 
BAO_0000219

>  <data_validity_description>  (131) 
None

>  <activity_id>  (131) 
722438

>  <standard_type>  (131) 
IC50

>  <target_chembl_id>  (131) 
CHEMBL202

>  <data_validity_comment>  (131) 
None

>  <published_value>  (131) 
0.11

>  <document_year>  (131) 
1988

>  <target_pref_name>  (131) 
Dihydrofolate reductase

>  <assay_chembl_id>  (131) 
CHEMBL669446

>  <standard_relation>  (131) 
=

>  <assay_description>  (131) 
Inhibitory activity against dihydrofolate reductase (DHFR) obtained from human WIL2 cells

>  <published_relation>  (131) 
=

>  <standard_value>  (131) 
110

>  <qudt_units>  (131) 
http://www.openphacts.org/units/Nanomolar

>  <target_tax_id>  (131) 
9606

>  <bao_label>  (131) 
cell-based format

>  <published_units>  (131) 
uM

>  <pchembl_value>  (131) 
6.96

>  <published_type>  (131) 
I50

>  <activity_comment>  (131) 
None

$$$$

     RDKit          

 33 35  0  0  0  0  0  0  0  0999 V2000
    0.0000    0.0000    0.0000 C   0  0  0  0  0  0  0  0  0  0  0  0
    0.0000    0.0000    0.0000 N   0  0  0  0  0  0  0  0  0  0  0  0
    0.0000    0.0000    0.0000 C   0  0  0  0  0  0  0  0  0  0  0  0
    0.0000    0.0000    0.0000 C   0  0  0  0  0  0  0  0  0  0  0  0
    0.0000    0.0000    0.0000 C   0  0  0  0  0  0  0  0  0  0  0  0
    0.0000    0.0000    0.0000 C   0  0  0  0  0  0  0  0  0  0  0  0
    0.0000    0.0000    0.0000 C   0  0  0  0  0  0  0  0  0  0  0  0
    0.0000    0.0000    0.0000 C   0  0  0  0  0  0  0  0  0  0  0  0
    0.0000    0.0000    0.0000 C   0  0  0  0  0  0  0  0  0  0  0  0
    0.0000    0.0000    0.0000 C   0  0  0  0  0  0  0  0  0  0  0  0
    0.0000    0.0000    0.0000 O   0  0  0  0  0  0  0  0  0  0  0  0
    0.0000    0.0000    0.0000 N   0  0  0  0  0  0  0  0  0  0  0  0
    0.0000    0.0000    0.0000 C   0  0  0  0  0  0  0  0  0  0  0  0
    0.0000    0.0000    0.0000 C   0  0  0  0  0  0  0  0  0  0  0  0
    0.0000    0.0000    0.0000 C   0  0  0  0  0  0  0  0  0  0  0  0
    0.0000    0.0000    0.0000 C   0  0  0  0  0  0  0  0  0  0  0  0
    0.0000    0.0000    0.0000 O   0  0  0  0  0  0  0  0  0  0  0  0
    0.0000    0.0000    0.0000 O   0  0  0  0  0  0  0  0  0  0  0  0
    0.0000    0.0000    0.0000 C   0  0  0  0  0  0  0  0  0  0  0  0
    0.0000    0.0000    0.0000 O   0  0  0  0  0  0  0  0  0  0  0  0
    0.0000    0.0000    0.0000 O   0  0  0  0  0  0  0  0  0  0  0  0
    0.0000    0.0000    0.0000 C   0  0  0  0  0  0  0  0  0  0  0  0
    0.0000    0.0000    0.0000 C   0  0  0  0  0  0  0  0  0  0  0  0
    0.0000    0.0000    0.0000 C   0  0  0  0  0  0  0  0  0  0  0  0
    0.0000    0.0000    0.0000 C   0  0  0  0  0  0  0  0  0  0  0  0
    0.0000    0.0000    0.0000 N   0  0  0  0  0  0  0  0  0  0  0  0
    0.0000    0.0000    0.0000 C   0  0  0  0  0  0  0  0  0  0  0  0
    0.0000    0.0000    0.0000 N   0  0  0  0  0  0  0  0  0  0  0  0
    0.0000    0.0000    0.0000 N   0  0  0  0  0  0  0  0  0  0  0  0
    0.0000    0.0000    0.0000 C   0  0  0  0  0  0  0  0  0  0  0  0
    0.0000    0.0000    0.0000 N   0  0  0  0  0  0  0  0  0  0  0  0
    0.0000    0.0000    0.0000 C   0  0  0  0  0  0  0  0  0  0  0  0
    0.0000    0.0000    0.0000 C   0  0  0  0  0  0  0  0  0  0  0  0
  1  2  1  0
  2  3  1  0
  3  4  1  0
  4  5  2  0
  5  6  1  0
  6  7  2  0
  7  8  1  0
  8  9  2  0
  7 10  1  0
 10 11  2  0
 10 12  1  0
 12 13  1  0
 13 14  1  0
 14 15  1  0
 15 16  1  0
 16 17  2  0
 16 18  1  0
 13 19  1  0
 19 20  2  0
 19 21  1  0
  2 22  1  0
 22 23  2  0
 23 24  1  0
 24 25  2  0
 25 26  1  0
 26 27  2  0
 27 28  1  0
 27 29  1  0
 29 30  2  0
 30 31  1  0
 30 32  1  0
 32 33  2  0
  9  4  1  0
 33 22  1  0
 32 25  1  0
M  END
>  <pIC50>  (132) 
8.34

>  <ChEMBL_ID>  (132) 
CHEMBL305253

>  <document_journal>  (132) 
J. Med. Chem.

>  <bao_endpoint>  (132) 
BAO_0000190

>  <potential_duplicate>  (132) 
False

>  <uo_units>  (132) 
UO_0000065

>  <canonical_smiles>  (132) 
CN(Cc1ccc(cc1)C(=O)NC(CCC(=O)O)C(=O)O)c2ccc3nc(N)nc(N)c3c2

>  <parent_molecule_chembl_id>  (132) 
CHEMBL305253

>  <assay_type>  (132) 
B

>  <src_id>  (132) 
1

>  <ligand_efficiency>  (132) 
{u'le': u'0.35', u'bei': u'18.43', u'sei': u'4.51', u'lle': u'6.76'}

>  <standard_flag>  (132) 
True

>  <molecule_chembl_id>  (132) 
CHEMBL305253

>  <target_organism>  (132) 
Homo sapiens

>  <standard_units>  (132) 
nM

>  <record_id>  (132) 
270918

>  <document_chembl_id>  (132) 
CHEMBL1124218

>  <bao_format>  (132) 
BAO_0000219

>  <data_validity_description>  (132) 
None

>  <activity_id>  (132) 
722440

>  <standard_type>  (132) 
IC50

>  <target_chembl_id>  (132) 
CHEMBL202

>  <data_validity_comment>  (132) 
None

>  <published_value>  (132) 
0.0046

>  <document_year>  (132) 
1988

>  <target_pref_name>  (132) 
Dihydrofolate reductase

>  <assay_chembl_id>  (132) 
CHEMBL669446

>  <standard_relation>  (132) 
=

>  <assay_description>  (132) 
Inhibitory activity against dihydrofolate reductase (DHFR) obtained from human WIL2 cells

>  <published_relation>  (132) 
=

>  <standard_value>  (132) 
4.6

>  <qudt_units>  (132) 
http://www.openphacts.org/units/Nanomolar

>  <target_tax_id>  (132) 
9606

>  <bao_label>  (132) 
cell-based format

>  <published_units>  (132) 
uM

>  <pchembl_value>  (132) 
8.34

>  <published_type>  (132) 
I50

>  <activity_comment>  (132) 
None

$$$$

     RDKit          

 33 35  0  0  0  0  0  0  0  0999 V2000
    0.0000    0.0000    0.0000 O   0  0  0  0  0  0  0  0  0  0  0  0
    0.0000    0.0000    0.0000 C   0  0  0  0  0  0  0  0  0  0  0  0
    0.0000    0.0000    0.0000 N   0  0  0  0  0  0  0  0  0  0  0  0
    0.0000    0.0000    0.0000 C   0  0  0  0  0  0  0  0  0  0  0  0
    0.0000    0.0000    0.0000 C   0  0  0  0  0  0  0  0  0  0  0  0
    0.0000    0.0000    0.0000 C   0  0  0  0  0  0  0  0  0  0  0  0
    0.0000    0.0000    0.0000 C   0  0  0  0  0  0  0  0  0  0  0  0
    0.0000    0.0000    0.0000 C   0  0  0  0  0  0  0  0  0  0  0  0
    0.0000    0.0000    0.0000 N   0  0  0  0  0  0  0  0  0  0  0  0
    0.0000    0.0000    0.0000 C   0  0  0  0  0  0  0  0  0  0  0  0
    0.0000    0.0000    0.0000 C   0  0  0  0  0  0  0  0  0  0  0  0
    0.0000    0.0000    0.0000 C   0  0  0  0  0  0  0  0  0  0  0  0
    0.0000    0.0000    0.0000 N   0  0  0  0  0  0  0  0  0  0  0  0
    0.0000    0.0000    0.0000 N   0  0  0  0  0  0  0  0  0  0  0  0
    0.0000    0.0000    0.0000 C   0  0  0  0  0  0  0  0  0  0  0  0
    0.0000    0.0000    0.0000 C   0  0  0  0  0  0  0  0  0  0  0  0
    0.0000    0.0000    0.0000 C   0  0  0  0  0  0  0  0  0  0  0  0
    0.0000    0.0000    0.0000 C   0  0  0  0  0  0  0  0  0  0  0  0
    0.0000    0.0000    0.0000 C   0  0  0  0  0  0  0  0  0  0  0  0
    0.0000    0.0000    0.0000 C   0  0  0  0  0  0  0  0  0  0  0  0
    0.0000    0.0000    0.0000 C   0  0  0  0  0  0  0  0  0  0  0  0
    0.0000    0.0000    0.0000 C   0  0  0  0  0  0  0  0  0  0  0  0
    0.0000    0.0000    0.0000 O   0  0  0  0  0  0  0  0  0  0  0  0
    0.0000    0.0000    0.0000 N   0  0  0  0  0  0  0  0  0  0  0  0
    0.0000    0.0000    0.0000 C   0  0  0  0  0  0  0  0  0  0  0  0
    0.0000    0.0000    0.0000 C   0  0  0  0  0  0  0  0  0  0  0  0
    0.0000    0.0000    0.0000 C   0  0  0  0  0  0  0  0  0  0  0  0
    0.0000    0.0000    0.0000 C   0  0  0  0  0  0  0  0  0  0  0  0
    0.0000    0.0000    0.0000 O   0  0  0  0  0  0  0  0  0  0  0  0
    0.0000    0.0000    0.0000 O   0  0  0  0  0  0  0  0  0  0  0  0
    0.0000    0.0000    0.0000 C   0  0  0  0  0  0  0  0  0  0  0  0
    0.0000    0.0000    0.0000 O   0  0  0  0  0  0  0  0  0  0  0  0
    0.0000    0.0000    0.0000 O   0  0  0  0  0  0  0  0  0  0  0  0
  1  2  2  0
  2  3  1  0
  2  4  1  0
  4  5  2  0
  4  6  1  0
  5  7  1  0
  8  6  2  0
  6  9  1  0
 10  7  1  0
  7 11  2  0
 11  8  1  0
  9 12  2  0
 13 10  1  0
 12 14  1  0
 12  3  1  0
 15 13  1  0
 13 16  1  0
 16 17  2  0
 18 16  1  0
 17 19  1  0
 20 18  2  0
 19 21  2  0
 21 20  1  0
 21 22  1  0
 22 23  2  0
 22 24  1  0
 24 25  1  0
 25 26  1  0
 25 27  1  0
 26 28  1  0
 27 29  2  0
 27 30  1  0
 28 31  1  0
 31 32  2  0
 31 33  1  0
M  END
>  <pIC50>  (133) 
7.08

>  <ChEMBL_ID>  (133) 
CHEMBL343140

>  <document_journal>  (133) 
J. Med. Chem.

>  <bao_endpoint>  (133) 
BAO_0000190

>  <potential_duplicate>  (133) 
False

>  <uo_units>  (133) 
UO_0000065

>  <canonical_smiles>  (133) 
CN(Cc1ccc2nc(N)nc(O)c2c1)c3ccc(cc3)C(=O)NC(CCC(=O)O)C(=O)O

>  <parent_molecule_chembl_id>  (133) 
CHEMBL343140

>  <assay_type>  (133) 
B

>  <src_id>  (133) 
1

>  <ligand_efficiency>  (133) 
{u'le': u'0.29', u'bei': u'15.62', u'sei': u'3.96', u'lle': u'5'}

>  <standard_flag>  (133) 
True

>  <molecule_chembl_id>  (133) 
CHEMBL343140

>  <target_organism>  (133) 
Homo sapiens

>  <standard_units>  (133) 
nM

>  <record_id>  (133) 
270932

>  <document_chembl_id>  (133) 
CHEMBL1124218

>  <bao_format>  (133) 
BAO_0000219

>  <data_validity_description>  (133) 
None

>  <activity_id>  (133) 
724727

>  <standard_type>  (133) 
IC50

>  <target_chembl_id>  (133) 
CHEMBL202

>  <data_validity_comment>  (133) 
None

>  <published_value>  (133) 
0.083

>  <document_year>  (133) 
1988

>  <target_pref_name>  (133) 
Dihydrofolate reductase

>  <assay_chembl_id>  (133) 
CHEMBL669446

>  <standard_relation>  (133) 
=

>  <assay_description>  (133) 
Inhibitory activity against dihydrofolate reductase (DHFR) obtained from human WIL2 cells

>  <published_relation>  (133) 
=

>  <standard_value>  (133) 
83

>  <qudt_units>  (133) 
http://www.openphacts.org/units/Nanomolar

>  <target_tax_id>  (133) 
9606

>  <bao_label>  (133) 
cell-based format

>  <published_units>  (133) 
uM

>  <pchembl_value>  (133) 
7.08

>  <published_type>  (133) 
I50

>  <activity_comment>  (133) 
None

$$$$

     RDKit          

 34 36  0  0  0  0  0  0  0  0999 V2000
    0.0000    0.0000    0.0000 N   0  0  0  0  0  0  0  0  0  0  0  0
    0.0000    0.0000    0.0000 C   0  0  0  0  0  0  0  0  0  0  0  0
    0.0000    0.0000    0.0000 N   0  0  0  0  0  0  0  0  0  0  0  0
    0.0000    0.0000    0.0000 C   0  0  0  0  0  0  0  0  0  0  0  0
    0.0000    0.0000    0.0000 N   0  0  0  0  0  0  0  0  0  0  0  0
    0.0000    0.0000    0.0000 C   0  0  0  0  0  0  0  0  0  0  0  0
    0.0000    0.0000    0.0000 C   0  0  0  0  0  0  0  0  0  0  0  0
    0.0000    0.0000    0.0000 C   0  0  0  0  0  0  0  0  0  0  0  0
    0.0000    0.0000    0.0000 C   0  0  0  0  0  0  0  0  0  0  0  0
    0.0000    0.0000    0.0000 C   0  0  0  0  0  0  0  0  0  0  0  0
    0.0000    0.0000    0.0000 C   0  0  0  0  0  0  0  0  0  0  0  0
    0.0000    0.0000    0.0000 N   0  0  0  0  0  0  0  0  0  0  0  0
    0.0000    0.0000    0.0000 N   0  0  0  0  0  0  0  0  0  0  0  0
    0.0000    0.0000    0.0000 C   0  0  0  0  0  0  0  0  0  0  0  0
    0.0000    0.0000    0.0000 C   0  0  0  0  0  0  0  0  0  0  0  0
    0.0000    0.0000    0.0000 C   0  0  0  0  0  0  0  0  0  0  0  0
    0.0000    0.0000    0.0000 C   0  0  0  0  0  0  0  0  0  0  0  0
    0.0000    0.0000    0.0000 C   0  0  0  0  0  0  0  0  0  0  0  0
    0.0000    0.0000    0.0000 C   0  0  0  0  0  0  0  0  0  0  0  0
    0.0000    0.0000    0.0000 C   0  0  0  0  0  0  0  0  0  0  0  0
    0.0000    0.0000    0.0000 C   0  0  0  0  0  0  0  0  0  0  0  0
    0.0000    0.0000    0.0000 O   0  0  0  0  0  0  0  0  0  0  0  0
    0.0000    0.0000    0.0000 N   0  0  0  0  0  0  0  0  0  0  0  0
    0.0000    0.0000    0.0000 C   0  0  0  0  0  0  0  0  0  0  0  0
    0.0000    0.0000    0.0000 C   0  0  0  0  0  0  0  0  0  0  0  0
    0.0000    0.0000    0.0000 C   0  0  0  0  0  0  0  0  0  0  0  0
    0.0000    0.0000    0.0000 C   0  0  0  0  0  0  0  0  0  0  0  0
    0.0000    0.0000    0.0000 O   0  0  0  0  0  0  0  0  0  0  0  0
    0.0000    0.0000    0.0000 O   0  0  0  0  0  0  0  0  0  0  0  0
    0.0000    0.0000    0.0000 C   0  0  0  0  0  0  0  0  0  0  0  0
    0.0000    0.0000    0.0000 O   0  0  0  0  0  0  0  0  0  0  0  0
    0.0000    0.0000    0.0000 O   0  0  0  0  0  0  0  0  0  0  0  0
    0.0000    0.0000    0.0000 C   0  0  0  0  0  0  0  0  0  0  0  0
    0.0000    0.0000    0.0000 O   0  0  0  0  0  0  0  0  0  0  0  0
  1  2  1  0
  2  3  2  0
  3  4  1  0
  4  5  1  0
  4  6  2  0
  6  7  1  0
  7  8  2  0
  8  9  1  0
  9 10  2  0
 10 11  1  0
 11 12  2  0
  8 13  1  0
 13 14  1  0
 14 15  1  0
 15 16  2  0
 16 17  1  0
 17 18  2  0
 18 19  1  0
 19 20  2  0
 18 21  1  0
 21 22  2  0
 21 23  1  0
 23 24  1  0
 24 25  1  0
 25 26  1  0
 26 27  1  0
 27 28  2  0
 27 29  1  0
 24 30  1  0
 30 31  2  0
 30 32  1  0
 13 33  1  0
 33 34  2  0
 12  2  1  0
 11  6  1  0
 20 15  1  0
M  END
>  <pIC50>  (134) 
8.24

>  <ChEMBL_ID>  (134) 
CHEMBL69713

>  <document_journal>  (134) 
J. Med. Chem.

>  <bao_endpoint>  (134) 
BAO_0000190

>  <potential_duplicate>  (134) 
False

>  <uo_units>  (134) 
UO_0000065

>  <canonical_smiles>  (134) 
Nc1nc(N)c2cc(ccc2n1)N(Cc3ccc(cc3)C(=O)NC(CCC(=O)O)C(=O)O)C=O

>  <parent_molecule_chembl_id>  (134) 
CHEMBL69713

>  <assay_type>  (134) 
B

>  <src_id>  (134) 
1

>  <ligand_efficiency>  (134) 
{u'le': u'0.33', u'bei': u'17.67', u'sei': u'4.08', u'lle': u'7.58'}

>  <standard_flag>  (134) 
True

>  <molecule_chembl_id>  (134) 
CHEMBL69713

>  <target_organism>  (134) 
Homo sapiens

>  <standard_units>  (134) 
nM

>  <record_id>  (134) 
270914

>  <document_chembl_id>  (134) 
CHEMBL1124218

>  <bao_format>  (134) 
BAO_0000219

>  <data_validity_description>  (134) 
None

>  <activity_id>  (134) 
724942

>  <standard_type>  (134) 
IC50

>  <target_chembl_id>  (134) 
CHEMBL202

>  <data_validity_comment>  (134) 
None

>  <published_value>  (134) 
0.0057

>  <document_year>  (134) 
1988

>  <target_pref_name>  (134) 
Dihydrofolate reductase

>  <assay_chembl_id>  (134) 
CHEMBL669446

>  <standard_relation>  (134) 
=

>  <assay_description>  (134) 
Inhibitory activity against dihydrofolate reductase (DHFR) obtained from human WIL2 cells

>  <published_relation>  (134) 
=

>  <standard_value>  (134) 
5.7

>  <qudt_units>  (134) 
http://www.openphacts.org/units/Nanomolar

>  <target_tax_id>  (134) 
9606

>  <bao_label>  (134) 
cell-based format

>  <published_units>  (134) 
uM

>  <pchembl_value>  (134) 
8.24

>  <published_type>  (134) 
I50

>  <activity_comment>  (134) 
None

$$$$

     RDKit          

 34 36  0  0  0  0  0  0  0  0999 V2000
    0.0000    0.0000    0.0000 O   0  0  0  0  0  0  0  0  0  0  0  0
    0.0000    0.0000    0.0000 C   0  0  0  0  0  0  0  0  0  0  0  0
    0.0000    0.0000    0.0000 N   0  0  0  0  0  0  0  0  0  0  0  0
    0.0000    0.0000    0.0000 C   0  0  0  0  0  0  0  0  0  0  0  0
    0.0000    0.0000    0.0000 C   0  0  0  0  0  0  0  0  0  0  0  0
    0.0000    0.0000    0.0000 C   0  0  0  0  0  0  0  0  0  0  0  0
    0.0000    0.0000    0.0000 C   0  0  0  0  0  0  0  0  0  0  0  0
    0.0000    0.0000    0.0000 C   0  0  0  0  0  0  0  0  0  0  0  0
    0.0000    0.0000    0.0000 N   0  0  0  0  0  0  0  0  0  0  0  0
    0.0000    0.0000    0.0000 C   0  0  0  0  0  0  0  0  0  0  0  0
    0.0000    0.0000    0.0000 N   0  0  0  0  0  0  0  0  0  0  0  0
    0.0000    0.0000    0.0000 C   0  0  0  0  0  0  0  0  0  0  0  0
    0.0000    0.0000    0.0000 C   0  0  0  0  0  0  0  0  0  0  0  0
    0.0000    0.0000    0.0000 C   0  0  0  0  0  0  0  0  0  0  0  0
    0.0000    0.0000    0.0000 N   0  0  0  0  0  0  0  0  0  0  0  0
    0.0000    0.0000    0.0000 C   0  0  0  0  0  0  0  0  0  0  0  0
    0.0000    0.0000    0.0000 O   0  0  0  0  0  0  0  0  0  0  0  0
    0.0000    0.0000    0.0000 C   0  0  0  0  0  0  0  0  0  0  0  0
    0.0000    0.0000    0.0000 C   0  0  0  0  0  0  0  0  0  0  0  0
    0.0000    0.0000    0.0000 C   0  0  0  0  0  0  0  0  0  0  0  0
    0.0000    0.0000    0.0000 C   0  0  0  0  0  0  0  0  0  0  0  0
    0.0000    0.0000    0.0000 C   0  0  0  0  0  0  0  0  0  0  0  0
    0.0000    0.0000    0.0000 C   0  0  0  0  0  0  0  0  0  0  0  0
    0.0000    0.0000    0.0000 O   0  0  0  0  0  0  0  0  0  0  0  0
    0.0000    0.0000    0.0000 N   0  0  0  0  0  0  0  0  0  0  0  0
    0.0000    0.0000    0.0000 C   0  0  0  0  0  0  0  0  0  0  0  0
    0.0000    0.0000    0.0000 C   0  0  0  0  0  0  0  0  0  0  0  0
    0.0000    0.0000    0.0000 C   0  0  0  0  0  0  0  0  0  0  0  0
    0.0000    0.0000    0.0000 C   0  0  0  0  0  0  0  0  0  0  0  0
    0.0000    0.0000    0.0000 O   0  0  0  0  0  0  0  0  0  0  0  0
    0.0000    0.0000    0.0000 O   0  0  0  0  0  0  0  0  0  0  0  0
    0.0000    0.0000    0.0000 C   0  0  0  0  0  0  0  0  0  0  0  0
    0.0000    0.0000    0.0000 O   0  0  0  0  0  0  0  0  0  0  0  0
    0.0000    0.0000    0.0000 O   0  0  0  0  0  0  0  0  0  0  0  0
  1  2  2  0
  2  3  1  0
  2  4  1  0
  4  5  2  0
  6  4  1  0
  5  7  1  0
  8  6  2  0
  6  9  1  0
  7 10  2  0
  7 11  1  0
 10  8  1  0
  9 12  2  0
 11 13  1  0
 11 14  1  0
 15 12  1  0
 12  3  1  0
 13 16  1  0
 14 17  2  0
 16 18  2  0
 19 16  1  0
 18 20  1  0
 21 19  2  0
 20 22  2  0
 22 21  1  0
 22 23  1  0
 23 24  2  0
 23 25  1  0
 25 26  1  0
 26 27  1  0
 26 28  1  0
 27 29  1  0
 28 30  2  0
 28 31  1  0
 29 32  1  0
 32 33  2  0
 32 34  1  0
M  END
>  <pIC50>  (135) 
6.55

>  <ChEMBL_ID>  (135) 
CHEMBL77065

>  <document_journal>  (135) 
J. Med. Chem.

>  <bao_endpoint>  (135) 
BAO_0000190

>  <potential_duplicate>  (135) 
False

>  <uo_units>  (135) 
UO_0000065

>  <canonical_smiles>  (135) 
Nc1nc(O)c2cc(ccc2n1)N(Cc3ccc(cc3)C(=O)NC(CCC(=O)O)C(=O)O)C=O

>  <parent_molecule_chembl_id>  (135) 
CHEMBL77065

>  <assay_type>  (135) 
B

>  <src_id>  (135) 
1

>  <ligand_efficiency>  (135) 
{u'le': u'0.26', u'bei': u'14.02', u'sei': u'3.34', u'lle': u'5.38'}

>  <standard_flag>  (135) 
True

>  <molecule_chembl_id>  (135) 
CHEMBL77065

>  <target_organism>  (135) 
Homo sapiens

>  <standard_units>  (135) 
nM

>  <record_id>  (135) 
270924

>  <document_chembl_id>  (135) 
CHEMBL1124218

>  <bao_format>  (135) 
BAO_0000219

>  <data_validity_description>  (135) 
None

>  <activity_id>  (135) 
725889

>  <standard_type>  (135) 
IC50

>  <target_chembl_id>  (135) 
CHEMBL202

>  <data_validity_comment>  (135) 
None

>  <published_value>  (135) 
0.28

>  <document_year>  (135) 
1988

>  <target_pref_name>  (135) 
Dihydrofolate reductase

>  <assay_chembl_id>  (135) 
CHEMBL669446

>  <standard_relation>  (135) 
=

>  <assay_description>  (135) 
Inhibitory activity against dihydrofolate reductase (DHFR) obtained from human WIL2 cells

>  <published_relation>  (135) 
=

>  <standard_value>  (135) 
280

>  <qudt_units>  (135) 
http://www.openphacts.org/units/Nanomolar

>  <target_tax_id>  (135) 
9606

>  <bao_label>  (135) 
cell-based format

>  <published_units>  (135) 
uM

>  <pchembl_value>  (135) 
6.55

>  <published_type>  (135) 
I50

>  <activity_comment>  (135) 
None

$$$$

     RDKit          

 34 36  0  0  0  0  0  0  0  0999 V2000
    0.0000    0.0000    0.0000 O   0  0  0  0  0  0  0  0  0  0  0  0
    0.0000    0.0000    0.0000 C   0  0  0  0  0  0  0  0  0  0  0  0
    0.0000    0.0000    0.0000 N   0  0  0  0  0  0  0  0  0  0  0  0
    0.0000    0.0000    0.0000 C   0  0  0  0  0  0  0  0  0  0  0  0
    0.0000    0.0000    0.0000 C   0  0  0  0  0  0  0  0  0  0  0  0
    0.0000    0.0000    0.0000 C   0  0  0  0  0  0  0  0  0  0  0  0
    0.0000    0.0000    0.0000 C   0  0  0  0  0  0  0  0  0  0  0  0
    0.0000    0.0000    0.0000 C   0  0  0  0  0  0  0  0  0  0  0  0
    0.0000    0.0000    0.0000 N   0  0  0  0  0  0  0  0  0  0  0  0
    0.0000    0.0000    0.0000 C   0  0  0  0  0  0  0  0  0  0  0  0
    0.0000    0.0000    0.0000 C   0  0  0  0  0  0  0  0  0  0  0  0
    0.0000    0.0000    0.0000 C   0  0  0  0  0  0  0  0  0  0  0  0
    0.0000    0.0000    0.0000 N   0  0  0  0  0  0  0  0  0  0  0  0
    0.0000    0.0000    0.0000 N   0  0  0  0  0  0  0  0  0  0  0  0
    0.0000    0.0000    0.0000 C   0  0  0  0  0  0  0  0  0  0  0  0
    0.0000    0.0000    0.0000 C   0  0  0  0  0  0  0  0  0  0  0  0
    0.0000    0.0000    0.0000 O   0  0  0  0  0  0  0  0  0  0  0  0
    0.0000    0.0000    0.0000 C   0  0  0  0  0  0  0  0  0  0  0  0
    0.0000    0.0000    0.0000 C   0  0  0  0  0  0  0  0  0  0  0  0
    0.0000    0.0000    0.0000 C   0  0  0  0  0  0  0  0  0  0  0  0
    0.0000    0.0000    0.0000 C   0  0  0  0  0  0  0  0  0  0  0  0
    0.0000    0.0000    0.0000 C   0  0  0  0  0  0  0  0  0  0  0  0
    0.0000    0.0000    0.0000 C   0  0  0  0  0  0  0  0  0  0  0  0
    0.0000    0.0000    0.0000 O   0  0  0  0  0  0  0  0  0  0  0  0
    0.0000    0.0000    0.0000 N   0  0  0  0  0  0  0  0  0  0  0  0
    0.0000    0.0000    0.0000 C   0  0  0  0  0  0  0  0  0  0  0  0
    0.0000    0.0000    0.0000 C   0  0  0  0  0  0  0  0  0  0  0  0
    0.0000    0.0000    0.0000 C   0  0  0  0  0  0  0  0  0  0  0  0
    0.0000    0.0000    0.0000 C   0  0  0  0  0  0  0  0  0  0  0  0
    0.0000    0.0000    0.0000 O   0  0  0  0  0  0  0  0  0  0  0  0
    0.0000    0.0000    0.0000 O   0  0  0  0  0  0  0  0  0  0  0  0
    0.0000    0.0000    0.0000 C   0  0  0  0  0  0  0  0  0  0  0  0
    0.0000    0.0000    0.0000 O   0  0  0  0  0  0  0  0  0  0  0  0
    0.0000    0.0000    0.0000 O   0  0  0  0  0  0  0  0  0  0  0  0
  1  2  2  0
  2  3  1  0
  2  4  1  0
  4  5  2  0
  6  4  1  0
  5  7  1  0
  8  6  2  0
  6  9  1  0
  7 10  1  0
  7 11  2  0
 11  8  1  0
  9 12  2  0
 10 13  1  0
 14 12  1  0
 12  3  1  0
 13 15  1  0
 13 16  1  0
 15 17  2  0
 16 18  2  0
 19 16  1  0
 18 20  1  0
 21 19  2  0
 20 22  2  0
 22 21  1  0
 22 23  1  0
 23 24  2  0
 23 25  1  0
 25 26  1  0
 26 27  1  0
 26 28  1  0
 27 29  1  0
 28 30  2  0
 28 31  1  0
 29 32  1  0
 32 33  2  0
 32 34  1  0
M  END
>  <pIC50>  (136) 
7.96

>  <ChEMBL_ID>  (136) 
CHEMBL140448

>  <document_journal>  (136) 
J. Med. Chem.

>  <bao_endpoint>  (136) 
BAO_0000190

>  <potential_duplicate>  (136) 
False

>  <uo_units>  (136) 
UO_0000065

>  <canonical_smiles>  (136) 
Nc1nc(O)c2cc(CN(C=O)c3ccc(cc3)C(=O)NC(CCC(=O)O)C(=O)O)ccc2n1

>  <parent_molecule_chembl_id>  (136) 
CHEMBL140448

>  <assay_type>  (136) 
B

>  <src_id>  (136) 
1

>  <ligand_efficiency>  (136) 
{u'le': u'0.32', u'bei': u'17.03', u'sei': u'4.06', u'lle': u'6.79'}

>  <standard_flag>  (136) 
True

>  <molecule_chembl_id>  (136) 
CHEMBL140448

>  <target_organism>  (136) 
Homo sapiens

>  <standard_units>  (136) 
nM

>  <record_id>  (136) 
270929

>  <document_chembl_id>  (136) 
CHEMBL1124218

>  <bao_format>  (136) 
BAO_0000219

>  <data_validity_description>  (136) 
None

>  <activity_id>  (136) 
728439

>  <standard_type>  (136) 
IC50

>  <target_chembl_id>  (136) 
CHEMBL202

>  <data_validity_comment>  (136) 
None

>  <published_value>  (136) 
0.011

>  <document_year>  (136) 
1988

>  <target_pref_name>  (136) 
Dihydrofolate reductase

>  <assay_chembl_id>  (136) 
CHEMBL669446

>  <standard_relation>  (136) 
=

>  <assay_description>  (136) 
Inhibitory activity against dihydrofolate reductase (DHFR) obtained from human WIL2 cells

>  <published_relation>  (136) 
=

>  <standard_value>  (136) 
11

>  <qudt_units>  (136) 
http://www.openphacts.org/units/Nanomolar

>  <target_tax_id>  (136) 
9606

>  <bao_label>  (136) 
cell-based format

>  <published_units>  (136) 
uM

>  <pchembl_value>  (136) 
7.96

>  <published_type>  (136) 
I50

>  <activity_comment>  (136) 
None

$$$$

     RDKit          

 33 35  0  0  0  0  0  0  0  0999 V2000
    0.0000    0.0000    0.0000 O   0  0  0  0  0  0  0  0  0  0  0  0
    0.0000    0.0000    0.0000 C   0  0  0  0  0  0  0  0  0  0  0  0
    0.0000    0.0000    0.0000 N   0  0  0  0  0  0  0  0  0  0  0  0
    0.0000    0.0000    0.0000 C   0  0  0  0  0  0  0  0  0  0  0  0
    0.0000    0.0000    0.0000 C   0  0  0  0  0  0  0  0  0  0  0  0
    0.0000    0.0000    0.0000 C   0  0  0  0  0  0  0  0  0  0  0  0
    0.0000    0.0000    0.0000 C   0  0  0  0  0  0  0  0  0  0  0  0
    0.0000    0.0000    0.0000 C   0  0  0  0  0  0  0  0  0  0  0  0
    0.0000    0.0000    0.0000 C   0  0  0  0  0  0  0  0  0  0  0  0
    0.0000    0.0000    0.0000 N   0  0  0  0  0  0  0  0  0  0  0  0
    0.0000    0.0000    0.0000 N   0  0  0  0  0  0  0  0  0  0  0  0
    0.0000    0.0000    0.0000 C   0  0  0  0  0  0  0  0  0  0  0  0
    0.0000    0.0000    0.0000 C   0  0  0  0  0  0  0  0  0  0  0  0
    0.0000    0.0000    0.0000 C   0  0  0  0  0  0  0  0  0  0  0  0
    0.0000    0.0000    0.0000 N   0  0  0  0  0  0  0  0  0  0  0  0
    0.0000    0.0000    0.0000 C   0  0  0  0  0  0  0  0  0  0  0  0
    0.0000    0.0000    0.0000 C   0  0  0  0  0  0  0  0  0  0  0  0
    0.0000    0.0000    0.0000 C   0  0  0  0  0  0  0  0  0  0  0  0
    0.0000    0.0000    0.0000 C   0  0  0  0  0  0  0  0  0  0  0  0
    0.0000    0.0000    0.0000 C   0  0  0  0  0  0  0  0  0  0  0  0
    0.0000    0.0000    0.0000 C   0  0  0  0  0  0  0  0  0  0  0  0
    0.0000    0.0000    0.0000 C   0  0  0  0  0  0  0  0  0  0  0  0
    0.0000    0.0000    0.0000 O   0  0  0  0  0  0  0  0  0  0  0  0
    0.0000    0.0000    0.0000 N   0  0  0  0  0  0  0  0  0  0  0  0
    0.0000    0.0000    0.0000 C   0  0  0  0  0  0  0  0  0  0  0  0
    0.0000    0.0000    0.0000 C   0  0  0  0  0  0  0  0  0  0  0  0
    0.0000    0.0000    0.0000 C   0  0  0  0  0  0  0  0  0  0  0  0
    0.0000    0.0000    0.0000 C   0  0  0  0  0  0  0  0  0  0  0  0
    0.0000    0.0000    0.0000 O   0  0  0  0  0  0  0  0  0  0  0  0
    0.0000    0.0000    0.0000 O   0  0  0  0  0  0  0  0  0  0  0  0
    0.0000    0.0000    0.0000 C   0  0  0  0  0  0  0  0  0  0  0  0
    0.0000    0.0000    0.0000 O   0  0  0  0  0  0  0  0  0  0  0  0
    0.0000    0.0000    0.0000 O   0  0  0  0  0  0  0  0  0  0  0  0
  1  2  2  0
  2  3  1  0
  2  4  1  0
  4  5  2  0
  4  6  1  0
  7  5  1  0
  5  8  1  0
  9  6  2  0
  6 10  1  0
  8 11  1  0
  8 12  2  0
 12  9  1  0
 10 13  2  0
 11 14  1  0
 13 15  1  0
 13  3  1  0
 14 16  1  0
 16 17  2  0
 18 16  1  0
 17 19  1  0
 20 18  2  0
 19 21  2  0
 21 20  1  0
 21 22  1  0
 22 23  2  0
 22 24  1  0
 24 25  1  0
 25 26  1  0
 25 27  1  0
 26 28  1  0
 27 29  2  0
 27 30  1  0
 28 31  1  0
 31 32  2  0
 31 33  1  0
M  END
>  <pIC50>  (137) 
6.34

>  <ChEMBL_ID>  (137) 
CHEMBL35936

>  <document_journal>  (137) 
J. Med. Chem.

>  <bao_endpoint>  (137) 
BAO_0000190

>  <potential_duplicate>  (137) 
False

>  <uo_units>  (137) 
UO_0000065

>  <canonical_smiles>  (137) 
Cc1c(NCc2ccc(cc2)C(=O)NC(CCC(=O)O)C(=O)O)ccc3nc(N)nc(O)c13

>  <parent_molecule_chembl_id>  (137) 
CHEMBL35936

>  <assay_type>  (137) 
B

>  <src_id>  (137) 
1

>  <ligand_efficiency>  (137) 
{u'le': u'0.26', u'bei': u'13.98', u'sei': u'3.38', u'lle': u'4.13'}

>  <standard_flag>  (137) 
True

>  <molecule_chembl_id>  (137) 
CHEMBL35936

>  <target_organism>  (137) 
Homo sapiens

>  <standard_units>  (137) 
nM

>  <record_id>  (137) 
270923

>  <document_chembl_id>  (137) 
CHEMBL1124218

>  <bao_format>  (137) 
BAO_0000219

>  <data_validity_description>  (137) 
None

>  <activity_id>  (137) 
728553

>  <standard_type>  (137) 
IC50

>  <target_chembl_id>  (137) 
CHEMBL202

>  <data_validity_comment>  (137) 
None

>  <published_value>  (137) 
0.46

>  <document_year>  (137) 
1988

>  <target_pref_name>  (137) 
Dihydrofolate reductase

>  <assay_chembl_id>  (137) 
CHEMBL669446

>  <standard_relation>  (137) 
=

>  <assay_description>  (137) 
Inhibitory activity against dihydrofolate reductase (DHFR) obtained from human WIL2 cells

>  <published_relation>  (137) 
=

>  <standard_value>  (137) 
460

>  <qudt_units>  (137) 
http://www.openphacts.org/units/Nanomolar

>  <target_tax_id>  (137) 
9606

>  <bao_label>  (137) 
cell-based format

>  <published_units>  (137) 
uM

>  <pchembl_value>  (137) 
6.34

>  <published_type>  (137) 
I50

>  <activity_comment>  (137) 
None

$$$$

     RDKit          

 33 35  0  0  0  0  0  0  0  0999 V2000
    0.0000    0.0000    0.0000 O   0  0  0  0  0  0  0  0  0  0  0  0
    0.0000    0.0000    0.0000 C   0  0  0  0  0  0  0  0  0  0  0  0
    0.0000    0.0000    0.0000 N   0  0  0  0  0  0  0  0  0  0  0  0
    0.0000    0.0000    0.0000 C   0  0  0  0  0  0  0  0  0  0  0  0
    0.0000    0.0000    0.0000 C   0  0  0  0  0  0  0  0  0  0  0  0
    0.0000    0.0000    0.0000 C   0  0  0  0  0  0  0  0  0  0  0  0
    0.0000    0.0000    0.0000 C   0  0  0  0  0  0  0  0  0  0  0  0
    0.0000    0.0000    0.0000 N   0  0  0  0  0  0  0  0  0  0  0  0
    0.0000    0.0000    0.0000 N   0  0  0  0  0  0  0  0  0  0  0  0
    0.0000    0.0000    0.0000 C   0  0  0  0  0  0  0  0  0  0  0  0
    0.0000    0.0000    0.0000 C   0  0  0  0  0  0  0  0  0  0  0  0
    0.0000    0.0000    0.0000 C   0  0  0  0  0  0  0  0  0  0  0  0
    0.0000    0.0000    0.0000 N   0  0  0  0  0  0  0  0  0  0  0  0
    0.0000    0.0000    0.0000 N   0  0  0  0  0  0  0  0  0  0  0  0
    0.0000    0.0000    0.0000 C   0  0  0  0  0  0  0  0  0  0  0  0
    0.0000    0.0000    0.0000 C   0  0  0  0  0  0  0  0  0  0  0  0
    0.0000    0.0000    0.0000 C   0  0  0  0  0  0  0  0  0  0  0  0
    0.0000    0.0000    0.0000 C   0  0  0  0  0  0  0  0  0  0  0  0
    0.0000    0.0000    0.0000 C   0  0  0  0  0  0  0  0  0  0  0  0
    0.0000    0.0000    0.0000 C   0  0  0  0  0  0  0  0  0  0  0  0
    0.0000    0.0000    0.0000 C   0  0  0  0  0  0  0  0  0  0  0  0
    0.0000    0.0000    0.0000 O   0  0  0  0  0  0  0  0  0  0  0  0
    0.0000    0.0000    0.0000 N   0  0  0  0  0  0  0  0  0  0  0  0
    0.0000    0.0000    0.0000 C   0  0  0  0  0  0  0  0  0  0  0  0
    0.0000    0.0000    0.0000 C   0  0  0  0  0  0  0  0  0  0  0  0
    0.0000    0.0000    0.0000 C   0  0  0  0  0  0  0  0  0  0  0  0
    0.0000    0.0000    0.0000 C   0  0  0  0  0  0  0  0  0  0  0  0
    0.0000    0.0000    0.0000 O   0  0  0  0  0  0  0  0  0  0  0  0
    0.0000    0.0000    0.0000 O   0  0  0  0  0  0  0  0  0  0  0  0
    0.0000    0.0000    0.0000 S   0  0  0  0  0  0  0  0  0  0  0  0
    0.0000    0.0000    0.0000 O   0  0  0  0  0  0  0  0  0  0  0  0
    0.0000    0.0000    0.0000 O   0  0  0  0  0  0  0  0  0  0  0  0
    0.0000    0.0000    0.0000 O   0  0  0  0  0  0  0  0  0  0  0  0
  1  2  2  0
  2  3  1  0
  2  4  1  0
  4  5  2  0
  6  4  1  0
  5  7  1  0
  8  6  2  0
  6  9  1  0
  7 10  1  0
  7 11  2  0
 11  8  1  0
  9 12  2  0
 10 13  1  0
 14 12  1  0
 12  3  1  0
 13 15  1  0
 15 16  2  0
 17 15  1  0
 16 18  1  0
 19 17  2  0
 18 20  2  0
 20 19  1  0
 20 21  1  0
 21 22  2  0
 21 23  1  0
 23 24  1  0
 24 25  1  0
 24 26  1  0
 25 27  1  0
 26 28  2  0
 26 29  1  0
 27 30  1  0
 30 31  2  0
 30 32  2  0
 30 33  1  0
M  END
>  <pIC50>  (138) 
6.4

>  <ChEMBL_ID>  (138) 
CHEMBL39175

>  <document_journal>  (138) 
J. Med. Chem.

>  <bao_endpoint>  (138) 
BAO_0000190

>  <potential_duplicate>  (138) 
False

>  <uo_units>  (138) 
UO_0000065

>  <canonical_smiles>  (138) 
Nc1nc(O)c2cc(CNc3ccc(cc3)C(=O)NC(CCS(=O)(=O)O)C(=O)O)cnc2n1

>  <parent_molecule_chembl_id>  (138) 
CHEMBL39175

>  <assay_type>  (138) 
B

>  <src_id>  (138) 
1

>  <ligand_efficiency>  (138) 
{u'le': u'0.26', u'bei': u'13.43', u'sei': u'2.83', u'lle': u'6.21'}

>  <standard_flag>  (138) 
True

>  <molecule_chembl_id>  (138) 
CHEMBL39175

>  <target_organism>  (138) 
Homo sapiens

>  <standard_units>  (138) 
nM

>  <record_id>  (138) 
65264

>  <document_chembl_id>  (138) 
CHEMBL1125453

>  <bao_format>  (138) 
BAO_0000357

>  <data_validity_description>  (138) 
None

>  <activity_id>  (138) 
730425

>  <standard_type>  (138) 
IC50

>  <target_chembl_id>  (138) 
CHEMBL202

>  <data_validity_comment>  (138) 
None

>  <published_value>  (138) 
0.4

>  <document_year>  (138) 
1992

>  <target_pref_name>  (138) 
Dihydrofolate reductase

>  <assay_chembl_id>  (138) 
CHEMBL884437

>  <standard_relation>  (138) 
=

>  <assay_description>  (138) 
In vitro inhibition of human dihydrofolate reductase (DHFR)

>  <published_relation>  (138) 
=

>  <standard_value>  (138) 
400

>  <qudt_units>  (138) 
http://www.openphacts.org/units/Nanomolar

>  <target_tax_id>  (138) 
9606

>  <bao_label>  (138) 
single protein format

>  <published_units>  (138) 
uM

>  <pchembl_value>  (138) 
6.4

>  <published_type>  (138) 
IC50

>  <activity_comment>  (138) 
None

$$$$

     RDKit          

 34 36  0  0  0  0  0  0  0  0999 V2000
    0.0000    0.0000    0.0000 N   0  0  0  0  0  0  0  0  0  0  0  0
    0.0000    0.0000    0.0000 C   0  0  0  0  0  0  0  0  0  0  0  0
    0.0000    0.0000    0.0000 N   0  0  0  0  0  0  0  0  0  0  0  0
    0.0000    0.0000    0.0000 C   0  0  0  0  0  0  0  0  0  0  0  0
    0.0000    0.0000    0.0000 N   0  0  0  0  0  0  0  0  0  0  0  0
    0.0000    0.0000    0.0000 C   0  0  0  0  0  0  0  0  0  0  0  0
    0.0000    0.0000    0.0000 C   0  0  0  0  0  0  0  0  0  0  0  0
    0.0000    0.0000    0.0000 C   0  0  0  0  0  0  0  0  0  0  0  0
    0.0000    0.0000    0.0000 C   0  0  0  0  0  0  0  0  0  0  0  0
    0.0000    0.0000    0.0000 N   0  0  0  0  0  0  0  0  0  0  0  0
    0.0000    0.0000    0.0000 C   0  0  0  0  0  0  0  0  0  0  0  0
    0.0000    0.0000    0.0000 O   0  0  0  0  0  0  0  0  0  0  0  0
    0.0000    0.0000    0.0000 C   0  0  0  0  0  0  0  0  0  0  0  0
    0.0000    0.0000    0.0000 C   0  0  0  0  0  0  0  0  0  0  0  0
    0.0000    0.0000    0.0000 C   0  0  0  0  0  0  0  0  0  0  0  0
    0.0000    0.0000    0.0000 C   0  0  0  0  0  0  0  0  0  0  0  0
    0.0000    0.0000    0.0000 C   0  0  0  0  0  0  0  0  0  0  0  0
    0.0000    0.0000    0.0000 C   0  0  0  0  0  0  0  0  0  0  0  0
    0.0000    0.0000    0.0000 C   0  0  0  0  0  0  0  0  0  0  0  0
    0.0000    0.0000    0.0000 O   0  0  0  0  0  0  0  0  0  0  0  0
    0.0000    0.0000    0.0000 N   0  0  0  0  0  0  0  0  0  0  0  0
    0.0000    0.0000    0.0000 C   0  0  0  0  0  0  0  0  0  0  0  0
    0.0000    0.0000    0.0000 C   0  0  0  0  0  0  0  0  0  0  0  0
    0.0000    0.0000    0.0000 C   0  0  0  0  0  0  0  0  0  0  0  0
    0.0000    0.0000    0.0000 C   0  0  0  0  0  0  0  0  0  0  0  0
    0.0000    0.0000    0.0000 O   0  0  0  0  0  0  0  0  0  0  0  0
    0.0000    0.0000    0.0000 O   0  0  0  0  0  0  0  0  0  0  0  0
    0.0000    0.0000    0.0000 C   0  0  0  0  0  0  0  0  0  0  0  0
    0.0000    0.0000    0.0000 O   0  0  0  0  0  0  0  0  0  0  0  0
    0.0000    0.0000    0.0000 O   0  0  0  0  0  0  0  0  0  0  0  0
    0.0000    0.0000    0.0000 C   0  0  0  0  0  0  0  0  0  0  0  0
    0.0000    0.0000    0.0000 C   0  0  0  0  0  0  0  0  0  0  0  0
    0.0000    0.0000    0.0000 C   0  0  0  0  0  0  0  0  0  0  0  0
    0.0000    0.0000    0.0000 N   0  0  0  0  0  0  0  0  0  0  0  0
  1  2  1  0
  2  3  2  0
  3  4  1  0
  4  5  1  0
  4  6  2  0
  6  7  1  0
  7  8  2  0
  8  9  1  0
  9 10  1  0
 10 11  1  0
 11 12  2  0
 10 13  1  0
 13 14  2  0
 14 15  1  0
 15 16  2  0
 16 17  1  0
 17 18  2  0
 16 19  1  0
 19 20  2  0
 19 21  1  0
 21 22  1  0
 22 23  1  0
 23 24  1  0
 24 25  1  0
 25 26  2  0
 25 27  1  0
 22 28  1  0
 28 29  2  0
 28 30  1  0
  8 31  1  0
 31 32  2  0
 32 33  1  0
 33 34  2  0
 34  2  1  0
 33  6  1  0
 18 13  1  0
M  END
>  <pIC50>  (139) 
8.24

>  <ChEMBL_ID>  (139) 
CHEMBL303654

>  <document_journal>  (139) 
J. Med. Chem.

>  <bao_endpoint>  (139) 
BAO_0000190

>  <potential_duplicate>  (139) 
False

>  <uo_units>  (139) 
UO_0000065

>  <canonical_smiles>  (139) 
Nc1nc(N)c2cc(CN(C=O)c3ccc(cc3)C(=O)NC(CCC(=O)O)C(=O)O)ccc2n1

>  <parent_molecule_chembl_id>  (139) 
CHEMBL303654

>  <assay_type>  (139) 
B

>  <src_id>  (139) 
1

>  <ligand_efficiency>  (139) 
{u'le': u'0.33', u'bei': u'17.66', u'sei': u'4.08', u'lle': u'7.58'}

>  <standard_flag>  (139) 
True

>  <molecule_chembl_id>  (139) 
CHEMBL303654

>  <target_organism>  (139) 
Homo sapiens

>  <standard_units>  (139) 
nM

>  <record_id>  (139) 
270927

>  <document_chembl_id>  (139) 
CHEMBL1124218

>  <bao_format>  (139) 
BAO_0000219

>  <data_validity_description>  (139) 
None

>  <activity_id>  (139) 
730615

>  <standard_type>  (139) 
IC50

>  <target_chembl_id>  (139) 
CHEMBL202

>  <data_validity_comment>  (139) 
None

>  <published_value>  (139) 
0.0058

>  <document_year>  (139) 
1988

>  <target_pref_name>  (139) 
Dihydrofolate reductase

>  <assay_chembl_id>  (139) 
CHEMBL669446

>  <standard_relation>  (139) 
=

>  <assay_description>  (139) 
Inhibitory activity against dihydrofolate reductase (DHFR) obtained from human WIL2 cells

>  <published_relation>  (139) 
=

>  <standard_value>  (139) 
5.8

>  <qudt_units>  (139) 
http://www.openphacts.org/units/Nanomolar

>  <target_tax_id>  (139) 
9606

>  <bao_label>  (139) 
cell-based format

>  <published_units>  (139) 
uM

>  <pchembl_value>  (139) 
8.24

>  <published_type>  (139) 
I50

>  <activity_comment>  (139) 
None

$$$$

     RDKit          

 35 37  0  0  0  0  0  0  0  0999 V2000
    0.0000    0.0000    0.0000 O   0  0  0  0  0  0  0  0  0  0  0  0
    0.0000    0.0000    0.0000 C   0  0  0  0  0  0  0  0  0  0  0  0
    0.0000    0.0000    0.0000 N   0  0  0  0  0  0  0  0  0  0  0  0
    0.0000    0.0000    0.0000 C   0  0  0  0  0  0  0  0  0  0  0  0
    0.0000    0.0000    0.0000 C   0  0  0  0  0  0  0  0  0  0  0  0
    0.0000    0.0000    0.0000 C   0  0  0  0  0  0  0  0  0  0  0  0
    0.0000    0.0000    0.0000 C   0  0  0  0  0  0  0  0  0  0  0  0
    0.0000    0.0000    0.0000 C   0  0  0  0  0  0  0  0  0  0  0  0
    0.0000    0.0000    0.0000 N   0  0  0  0  0  0  0  0  0  0  0  0
    0.0000    0.0000    0.0000 C   0  0  0  0  0  0  0  0  0  0  0  0
    0.0000    0.0000    0.0000 N   0  0  0  0  0  0  0  0  0  0  0  0
    0.0000    0.0000    0.0000 C   0  0  0  0  0  0  0  0  0  0  0  0
    0.0000    0.0000    0.0000 C   0  0  0  0  0  0  0  0  0  0  0  0
    0.0000    0.0000    0.0000 C   0  0  0  0  0  0  0  0  0  0  0  0
    0.0000    0.0000    0.0000 N   0  0  0  0  0  0  0  0  0  0  0  0
    0.0000    0.0000    0.0000 C   0  0  0  0  0  0  0  0  0  0  0  0
    0.0000    0.0000    0.0000 C   0  0  0  0  0  0  0  0  0  0  0  0
    0.0000    0.0000    0.0000 C   0  0  0  0  0  0  0  0  0  0  0  0
    0.0000    0.0000    0.0000 C   0  0  0  0  0  0  0  0  0  0  0  0
    0.0000    0.0000    0.0000 C   0  0  0  0  0  0  0  0  0  0  0  0
    0.0000    0.0000    0.0000 C   0  0  0  0  0  0  0  0  0  0  0  0
    0.0000    0.0000    0.0000 C   0  0  0  0  0  0  0  0  0  0  0  0
    0.0000    0.0000    0.0000 C   0  0  0  0  0  0  0  0  0  0  0  0
    0.0000    0.0000    0.0000 C   0  0  0  0  0  0  0  0  0  0  0  0
    0.0000    0.0000    0.0000 O   0  0  0  0  0  0  0  0  0  0  0  0
    0.0000    0.0000    0.0000 N   0  0  0  0  0  0  0  0  0  0  0  0
    0.0000    0.0000    0.0000 C   0  0  0  0  0  0  0  0  0  0  0  0
    0.0000    0.0000    0.0000 C   0  0  0  0  0  0  0  0  0  0  0  0
    0.0000    0.0000    0.0000 C   0  0  0  0  0  0  0  0  0  0  0  0
    0.0000    0.0000    0.0000 C   0  0  0  0  0  0  0  0  0  0  0  0
    0.0000    0.0000    0.0000 O   0  0  0  0  0  0  0  0  0  0  0  0
    0.0000    0.0000    0.0000 O   0  0  0  0  0  0  0  0  0  0  0  0
    0.0000    0.0000    0.0000 C   0  0  0  0  0  0  0  0  0  0  0  0
    0.0000    0.0000    0.0000 O   0  0  0  0  0  0  0  0  0  0  0  0
    0.0000    0.0000    0.0000 O   0  0  0  0  0  0  0  0  0  0  0  0
  1  2  2  0
  2  3  1  0
  2  4  1  0
  4  5  2  0
  6  4  1  0
  5  7  1  0
  8  6  2  0
  6  9  1  0
  7 10  2  0
  7 11  1  0
 10  8  1  0
  9 12  2  0
 11 13  1  0
 11 14  1  0
 15 12  1  0
 12  3  1  0
 13 16  1  0
 14 17  1  0
 16 18  2  0
 17 19  2  0
 20 17  1  0
 19 21  1  0
 22 20  2  0
 21 23  2  0
 23 22  1  0
 23 24  1  0
 24 25  2  0
 24 26  1  0
 26 27  1  0
 27 28  1  0
 27 29  1  0
 28 30  1  0
 29 31  2  0
 29 32  1  0
 30 33  1  0
 33 34  2  0
 33 35  1  0
M  END
>  <pIC50>  (140) 
5.85

>  <ChEMBL_ID>  (140) 
CHEMBL442217

>  <document_journal>  (140) 
J. Med. Chem.

>  <bao_endpoint>  (140) 
BAO_0000190

>  <potential_duplicate>  (140) 
False

>  <uo_units>  (140) 
UO_0000065

>  <canonical_smiles>  (140) 
Nc1nc(O)c2cc(ccc2n1)N(CC=C)Cc3ccc(cc3)C(=O)NC(CCC(=O)O)C(=O)O

>  <parent_molecule_chembl_id>  (140) 
CHEMBL442217

>  <assay_type>  (140) 
B

>  <src_id>  (140) 
1

>  <ligand_efficiency>  (140) 
{u'le': u'0.23', u'bei': u'12.21', u'sei': u'3.27', u'lle': u'3.15'}

>  <standard_flag>  (140) 
True

>  <molecule_chembl_id>  (140) 
CHEMBL442217

>  <target_organism>  (140) 
Homo sapiens

>  <standard_units>  (140) 
nM

>  <record_id>  (140) 
270930

>  <document_chembl_id>  (140) 
CHEMBL1124218

>  <bao_format>  (140) 
BAO_0000219

>  <data_validity_description>  (140) 
None

>  <activity_id>  (140) 
731890

>  <standard_type>  (140) 
IC50

>  <target_chembl_id>  (140) 
CHEMBL202

>  <data_validity_comment>  (140) 
None

>  <published_value>  (140) 
1.4

>  <document_year>  (140) 
1988

>  <target_pref_name>  (140) 
Dihydrofolate reductase

>  <assay_chembl_id>  (140) 
CHEMBL669446

>  <standard_relation>  (140) 
=

>  <assay_description>  (140) 
Inhibitory activity against dihydrofolate reductase (DHFR) obtained from human WIL2 cells

>  <published_relation>  (140) 
=

>  <standard_value>  (140) 
1400

>  <qudt_units>  (140) 
http://www.openphacts.org/units/Nanomolar

>  <target_tax_id>  (140) 
9606

>  <bao_label>  (140) 
cell-based format

>  <published_units>  (140) 
uM

>  <pchembl_value>  (140) 
5.85

>  <published_type>  (140) 
I50

>  <activity_comment>  (140) 
None

$$$$

     RDKit          

 33 35  0  0  0  0  0  0  0  0999 V2000
    0.0000    0.0000    0.0000 O   0  0  0  0  0  0  0  0  0  0  0  0
    0.0000    0.0000    0.0000 C   0  0  0  0  0  0  0  0  0  0  0  0
    0.0000    0.0000    0.0000 N   0  0  0  0  0  0  0  0  0  0  0  0
    0.0000    0.0000    0.0000 C   0  0  0  0  0  0  0  0  0  0  0  0
    0.0000    0.0000    0.0000 C   0  0  0  0  0  0  0  0  0  0  0  0
    0.0000    0.0000    0.0000 C   0  0  0  0  0  0  0  0  0  0  0  0
    0.0000    0.0000    0.0000 C   0  0  0  0  0  0  0  0  0  0  0  0
    0.0000    0.0000    0.0000 N   0  0  0  0  0  0  0  0  0  0  0  0
    0.0000    0.0000    0.0000 N   0  0  0  0  0  0  0  0  0  0  0  0
    0.0000    0.0000    0.0000 C   0  0  0  0  0  0  0  0  0  0  0  0
    0.0000    0.0000    0.0000 C   0  0  0  0  0  0  0  0  0  0  0  0
    0.0000    0.0000    0.0000 C   0  0  0  0  0  0  0  0  0  0  0  0
    0.0000    0.0000    0.0000 N   0  0  0  0  0  0  0  0  0  0  0  0
    0.0000    0.0000    0.0000 N   0  0  0  0  0  0  0  0  0  0  0  0
    0.0000    0.0000    0.0000 C   0  0  0  0  0  0  0  0  0  0  0  0
    0.0000    0.0000    0.0000 C   0  0  0  0  0  0  0  0  0  0  0  0
    0.0000    0.0000    0.0000 C   0  0  0  0  0  0  0  0  0  0  0  0
    0.0000    0.0000    0.0000 C   0  0  0  0  0  0  0  0  0  0  0  0
    0.0000    0.0000    0.0000 C   0  0  0  0  0  0  0  0  0  0  0  0
    0.0000    0.0000    0.0000 C   0  0  0  0  0  0  0  0  0  0  0  0
    0.0000    0.0000    0.0000 C   0  0  0  0  0  0  0  0  0  0  0  0
    0.0000    0.0000    0.0000 O   0  0  0  0  0  0  0  0  0  0  0  0
    0.0000    0.0000    0.0000 N   0  0  0  0  0  0  0  0  0  0  0  0
    0.0000    0.0000    0.0000 C   0  0  0  0  0  0  0  0  0  0  0  0
    0.0000    0.0000    0.0000 C   0  0  0  0  0  0  0  0  0  0  0  0
    0.0000    0.0000    0.0000 C   0  0  0  0  0  0  0  0  0  0  0  0
    0.0000    0.0000    0.0000 C   0  0  0  0  0  0  0  0  0  0  0  0
    0.0000    0.0000    0.0000 O   0  0  0  0  0  0  0  0  0  0  0  0
    0.0000    0.0000    0.0000 O   0  0  0  0  0  0  0  0  0  0  0  0
    0.0000    0.0000    0.0000 P   0  0  0  0  0  0  0  0  0  0  0  0
    0.0000    0.0000    0.0000 O   0  0  0  0  0  0  0  0  0  0  0  0
    0.0000    0.0000    0.0000 O   0  0  0  0  0  0  0  0  0  0  0  0
    0.0000    0.0000    0.0000 O   0  0  0  0  0  0  0  0  0  0  0  0
  1  2  2  0
  2  3  1  0
  2  4  1  0
  4  5  2  0
  6  4  1  0
  5  7  1  0
  8  6  2  0
  6  9  1  0
  7 10  1  0
  7 11  2  0
 11  8  1  0
  9 12  2  0
 10 13  1  0
 14 12  1  0
 12  3  1  0
 13 15  1  0
 15 16  2  0
 17 15  1  0
 16 18  1  0
 19 17  2  0
 18 20  2  0
 20 19  1  0
 20 21  1  0
 21 22  2  0
 21 23  1  0
 23 24  1  0
 24 25  1  0
 24 26  1  0
 25 27  1  0
 26 28  2  0
 26 29  1  0
 27 30  1  0
 30 31  2  0
 30 32  1  0
 30 33  1  0
M  END
>  <pIC50>  (141) 
5.33

>  <ChEMBL_ID>  (141) 
CHEMBL40850

>  <document_journal>  (141) 
J. Med. Chem.

>  <bao_endpoint>  (141) 
BAO_0000190

>  <potential_duplicate>  (141) 
False

>  <uo_units>  (141) 
UO_0000065

>  <canonical_smiles>  (141) 
Nc1nc(O)c2cc(CNc3ccc(cc3)C(=O)NC(CCP(=O)(O)O)C(=O)O)cnc2n1

>  <parent_molecule_chembl_id>  (141) 
CHEMBL40850

>  <assay_type>  (141) 
B

>  <src_id>  (141) 
1

>  <ligand_efficiency>  (141) 
{u'le': u'0.22', u'bei': u'11.18', u'sei': u'2.31', u'lle': u'5.31'}

>  <standard_flag>  (141) 
True

>  <molecule_chembl_id>  (141) 
CHEMBL40850

>  <target_organism>  (141) 
Homo sapiens

>  <standard_units>  (141) 
nM

>  <record_id>  (141) 
65270

>  <document_chembl_id>  (141) 
CHEMBL1125453

>  <bao_format>  (141) 
BAO_0000357

>  <data_validity_description>  (141) 
None

>  <activity_id>  (141) 
734040

>  <standard_type>  (141) 
IC50

>  <target_chembl_id>  (141) 
CHEMBL202

>  <data_validity_comment>  (141) 
None

>  <published_value>  (141) 
4.7

>  <document_year>  (141) 
1992

>  <target_pref_name>  (141) 
Dihydrofolate reductase

>  <assay_chembl_id>  (141) 
CHEMBL884437

>  <standard_relation>  (141) 
=

>  <assay_description>  (141) 
In vitro inhibition of human dihydrofolate reductase (DHFR)

>  <published_relation>  (141) 
=

>  <standard_value>  (141) 
4700

>  <qudt_units>  (141) 
http://www.openphacts.org/units/Nanomolar

>  <target_tax_id>  (141) 
9606

>  <bao_label>  (141) 
single protein format

>  <published_units>  (141) 
uM

>  <pchembl_value>  (141) 
5.33

>  <published_type>  (141) 
IC50

>  <activity_comment>  (141) 
None

$$$$

     RDKit          

 33 35  0  0  0  0  0  0  0  0999 V2000
    0.0000    0.0000    0.0000 O   0  0  0  0  0  0  0  0  0  0  0  0
    0.0000    0.0000    0.0000 C   0  0  0  0  0  0  0  0  0  0  0  0
    0.0000    0.0000    0.0000 N   0  0  0  0  0  0  0  0  0  0  0  0
    0.0000    0.0000    0.0000 C   0  0  0  0  0  0  0  0  0  0  0  0
    0.0000    0.0000    0.0000 C   0  0  0  0  0  0  0  0  0  0  0  0
    0.0000    0.0000    0.0000 C   0  0  0  0  0  0  0  0  0  0  0  0
    0.0000    0.0000    0.0000 C   0  0  0  0  0  0  0  0  0  0  0  0
    0.0000    0.0000    0.0000 C   0  0  0  0  0  0  0  0  0  0  0  0
    0.0000    0.0000    0.0000 N   0  0  0  0  0  0  0  0  0  0  0  0
    0.0000    0.0000    0.0000 N   0  0  0  0  0  0  0  0  0  0  0  0
    0.0000    0.0000    0.0000 C   0  0  0  0  0  0  0  0  0  0  0  0
    0.0000    0.0000    0.0000 C   0  0  0  0  0  0  0  0  0  0  0  0
    0.0000    0.0000    0.0000 C   0  0  0  0  0  0  0  0  0  0  0  0
    0.0000    0.0000    0.0000 C   0  0  0  0  0  0  0  0  0  0  0  0
    0.0000    0.0000    0.0000 N   0  0  0  0  0  0  0  0  0  0  0  0
    0.0000    0.0000    0.0000 C   0  0  0  0  0  0  0  0  0  0  0  0
    0.0000    0.0000    0.0000 C   0  0  0  0  0  0  0  0  0  0  0  0
    0.0000    0.0000    0.0000 C   0  0  0  0  0  0  0  0  0  0  0  0
    0.0000    0.0000    0.0000 C   0  0  0  0  0  0  0  0  0  0  0  0
    0.0000    0.0000    0.0000 C   0  0  0  0  0  0  0  0  0  0  0  0
    0.0000    0.0000    0.0000 C   0  0  0  0  0  0  0  0  0  0  0  0
    0.0000    0.0000    0.0000 C   0  0  0  0  0  0  0  0  0  0  0  0
    0.0000    0.0000    0.0000 O   0  0  0  0  0  0  0  0  0  0  0  0
    0.0000    0.0000    0.0000 N   0  0  0  0  0  0  0  0  0  0  0  0
    0.0000    0.0000    0.0000 C   0  0  0  0  0  0  0  0  0  0  0  0
    0.0000    0.0000    0.0000 C   0  0  0  0  0  0  0  0  0  0  0  0
    0.0000    0.0000    0.0000 C   0  0  0  0  0  0  0  0  0  0  0  0
    0.0000    0.0000    0.0000 C   0  0  0  0  0  0  0  0  0  0  0  0
    0.0000    0.0000    0.0000 O   0  0  0  0  0  0  0  0  0  0  0  0
    0.0000    0.0000    0.0000 O   0  0  0  0  0  0  0  0  0  0  0  0
    0.0000    0.0000    0.0000 C   0  0  0  0  0  0  0  0  0  0  0  0
    0.0000    0.0000    0.0000 O   0  0  0  0  0  0  0  0  0  0  0  0
    0.0000    0.0000    0.0000 O   0  0  0  0  0  0  0  0  0  0  0  0
  1  2  2  0
  2  3  1  0
  2  4  1  0
  4  5  2  0
  4  6  1  0
  5  7  1  0
  8  6  2  0
  6  9  1  0
 10  7  1  0
  7 11  2  0
 11  8  1  0
  9 12  2  0
 13 10  1  0
 10 14  1  0
 12 15  1  0
 12  3  1  0
 14 16  1  0
 16 17  2  0
 18 16  1  0
 17 19  1  0
 20 18  2  0
 19 21  2  0
 21 20  1  0
 21 22  1  0
 22 23  2  0
 22 24  1  0
 24 25  1  0
 25 26  1  0
 25 27  1  0
 26 28  1  0
 27 29  2  0
 27 30  1  0
 28 31  1  0
 31 32  2  0
 31 33  1  0
M  END
>  <pIC50>  (142) 
6.52

>  <ChEMBL_ID>  (142) 
CHEMBL74659

>  <document_journal>  (142) 
J. Med. Chem.

>  <bao_endpoint>  (142) 
BAO_0000190

>  <potential_duplicate>  (142) 
False

>  <uo_units>  (142) 
UO_0000065

>  <canonical_smiles>  (142) 
CN(Cc1ccc(cc1)C(=O)NC(CCC(=O)O)C(=O)O)c2ccc3nc(N)nc(O)c3c2

>  <parent_molecule_chembl_id>  (142) 
CHEMBL74659

>  <assay_type>  (142) 
B

>  <src_id>  (142) 
1

>  <ligand_efficiency>  (142) 
{u'le': u'0.27', u'bei': u'14.39', u'sei': u'3.64', u'lle': u'4.44'}

>  <standard_flag>  (142) 
True

>  <molecule_chembl_id>  (142) 
CHEMBL74659

>  <target_organism>  (142) 
Homo sapiens

>  <standard_units>  (142) 
nM

>  <record_id>  (142) 
270921

>  <document_chembl_id>  (142) 
CHEMBL1124218

>  <bao_format>  (142) 
BAO_0000219

>  <data_validity_description>  (142) 
None

>  <activity_id>  (142) 
734457

>  <standard_type>  (142) 
IC50

>  <target_chembl_id>  (142) 
CHEMBL202

>  <data_validity_comment>  (142) 
None

>  <published_value>  (142) 
0.3

>  <document_year>  (142) 
1988

>  <target_pref_name>  (142) 
Dihydrofolate reductase

>  <assay_chembl_id>  (142) 
CHEMBL669446

>  <standard_relation>  (142) 
=

>  <assay_description>  (142) 
Inhibitory activity against dihydrofolate reductase (DHFR) obtained from human WIL2 cells

>  <published_relation>  (142) 
=

>  <standard_value>  (142) 
300

>  <qudt_units>  (142) 
http://www.openphacts.org/units/Nanomolar

>  <target_tax_id>  (142) 
9606

>  <bao_label>  (142) 
cell-based format

>  <published_units>  (142) 
uM

>  <pchembl_value>  (142) 
6.52

>  <published_type>  (142) 
I50

>  <activity_comment>  (142) 
None

$$$$

     RDKit          

 35 37  0  0  0  0  0  0  0  0999 V2000
    0.0000    0.0000    0.0000 N   0  0  0  0  0  0  0  0  0  0  0  0
    0.0000    0.0000    0.0000 C   0  0  0  0  0  0  0  0  0  0  0  0
    0.0000    0.0000    0.0000 N   0  0  0  0  0  0  0  0  0  0  0  0
    0.0000    0.0000    0.0000 C   0  0  0  0  0  0  0  0  0  0  0  0
    0.0000    0.0000    0.0000 N   0  0  0  0  0  0  0  0  0  0  0  0
    0.0000    0.0000    0.0000 C   0  0  0  0  0  0  0  0  0  0  0  0
    0.0000    0.0000    0.0000 C   0  0  0  0  0  0  0  0  0  0  0  0
    0.0000    0.0000    0.0000 C   0  0  0  0  0  0  0  0  0  0  0  0
    0.0000    0.0000    0.0000 C   0  0  0  0  0  0  0  0  0  0  0  0
    0.0000    0.0000    0.0000 C   0  0  0  0  0  0  0  0  0  0  0  0
    0.0000    0.0000    0.0000 C   0  0  0  0  0  0  0  0  0  0  0  0
    0.0000    0.0000    0.0000 N   0  0  0  0  0  0  0  0  0  0  0  0
    0.0000    0.0000    0.0000 N   0  0  0  0  0  0  0  0  0  0  0  0
    0.0000    0.0000    0.0000 C   0  0  0  0  0  0  0  0  0  0  0  0
    0.0000    0.0000    0.0000 C   0  0  0  0  0  0  0  0  0  0  0  0
    0.0000    0.0000    0.0000 C   0  0  0  0  0  0  0  0  0  0  0  0
    0.0000    0.0000    0.0000 C   0  0  0  0  0  0  0  0  0  0  0  0
    0.0000    0.0000    0.0000 C   0  0  0  0  0  0  0  0  0  0  0  0
    0.0000    0.0000    0.0000 C   0  0  0  0  0  0  0  0  0  0  0  0
    0.0000    0.0000    0.0000 C   0  0  0  0  0  0  0  0  0  0  0  0
    0.0000    0.0000    0.0000 C   0  0  0  0  0  0  0  0  0  0  0  0
    0.0000    0.0000    0.0000 C   0  0  0  0  0  0  0  0  0  0  0  0
    0.0000    0.0000    0.0000 C   0  0  0  0  0  0  0  0  0  0  0  0
    0.0000    0.0000    0.0000 C   0  0  0  0  0  0  0  0  0  0  0  0
    0.0000    0.0000    0.0000 O   0  0  0  0  0  0  0  0  0  0  0  0
    0.0000    0.0000    0.0000 N   0  0  0  0  0  0  0  0  0  0  0  0
    0.0000    0.0000    0.0000 C   0  0  0  0  0  0  0  0  0  0  0  0
    0.0000    0.0000    0.0000 C   0  0  0  0  0  0  0  0  0  0  0  0
    0.0000    0.0000    0.0000 C   0  0  0  0  0  0  0  0  0  0  0  0
    0.0000    0.0000    0.0000 C   0  0  0  0  0  0  0  0  0  0  0  0
    0.0000    0.0000    0.0000 O   0  0  0  0  0  0  0  0  0  0  0  0
    0.0000    0.0000    0.0000 O   0  0  0  0  0  0  0  0  0  0  0  0
    0.0000    0.0000    0.0000 C   0  0  0  0  0  0  0  0  0  0  0  0
    0.0000    0.0000    0.0000 O   0  0  0  0  0  0  0  0  0  0  0  0
    0.0000    0.0000    0.0000 O   0  0  0  0  0  0  0  0  0  0  0  0
  1  2  1  0
  2  3  2  0
  3  4  1  0
  4  5  1  0
  4  6  2  0
  6  7  1  0
  7  8  2  0
  8  9  1  0
  9 10  2  0
 10 11  1  0
 11 12  2  0
  8 13  1  0
 13 14  1  0
 14 15  1  0
 15 16  2  0
 13 17  1  0
 17 18  1  0
 18 19  2  0
 19 20  1  0
 20 21  2  0
 21 22  1  0
 22 23  2  0
 21 24  1  0
 24 25  2  0
 24 26  1  0
 26 27  1  0
 27 28  1  0
 28 29  1  0
 29 30  1  0
 30 31  2  0
 30 32  1  0
 27 33  1  0
 33 34  2  0
 33 35  1  0
 12  2  1  0
 11  6  1  0
 23 18  1  0
M  END
>  <pIC50>  (143) 
8.27

>  <ChEMBL_ID>  (143) 
CHEMBL141576

>  <document_journal>  (143) 
J. Med. Chem.

>  <bao_endpoint>  (143) 
BAO_0000190

>  <potential_duplicate>  (143) 
False

>  <uo_units>  (143) 
UO_0000065

>  <canonical_smiles>  (143) 
Nc1nc(N)c2cc(ccc2n1)N(CC=C)Cc3ccc(cc3)C(=O)NC(CCC(=O)O)C(=O)O

>  <parent_molecule_chembl_id>  (143) 
CHEMBL141576

>  <assay_type>  (143) 
B

>  <src_id>  (143) 
1

>  <ligand_efficiency>  (143) 
{u'le': u'0.32', u'bei': u'17.28', u'sei': u'4.48', u'lle': u'6.08'}

>  <standard_flag>  (143) 
True

>  <molecule_chembl_id>  (143) 
CHEMBL141576

>  <target_organism>  (143) 
Homo sapiens

>  <standard_units>  (143) 
nM

>  <record_id>  (143) 
270917

>  <document_chembl_id>  (143) 
CHEMBL1124218

>  <bao_format>  (143) 
BAO_0000219

>  <data_validity_description>  (143) 
None

>  <activity_id>  (143) 
737019

>  <standard_type>  (143) 
IC50

>  <target_chembl_id>  (143) 
CHEMBL202

>  <data_validity_comment>  (143) 
None

>  <published_value>  (143) 
0.0054

>  <document_year>  (143) 
1988

>  <target_pref_name>  (143) 
Dihydrofolate reductase

>  <assay_chembl_id>  (143) 
CHEMBL669446

>  <standard_relation>  (143) 
=

>  <assay_description>  (143) 
Inhibitory activity against dihydrofolate reductase (DHFR) obtained from human WIL2 cells

>  <published_relation>  (143) 
=

>  <standard_value>  (143) 
5.4

>  <qudt_units>  (143) 
http://www.openphacts.org/units/Nanomolar

>  <target_tax_id>  (143) 
9606

>  <bao_label>  (143) 
cell-based format

>  <published_units>  (143) 
uM

>  <pchembl_value>  (143) 
8.27

>  <published_type>  (143) 
I50

>  <activity_comment>  (143) 
None

$$$$

     RDKit          

 35 37  0  0  0  0  0  0  0  0999 V2000
    0.0000    0.0000    0.0000 O   0  0  0  0  0  0  0  0  0  0  0  0
    0.0000    0.0000    0.0000 C   0  0  0  0  0  0  0  0  0  0  0  0
    0.0000    0.0000    0.0000 N   0  0  0  0  0  0  0  0  0  0  0  0
    0.0000    0.0000    0.0000 C   0  0  0  0  0  0  0  0  0  0  0  0
    0.0000    0.0000    0.0000 C   0  0  0  0  0  0  0  0  0  0  0  0
    0.0000    0.0000    0.0000 C   0  0  0  0  0  0  0  0  0  0  0  0
    0.0000    0.0000    0.0000 C   0  0  0  0  0  0  0  0  0  0  0  0
    0.0000    0.0000    0.0000 N   0  0  0  0  0  0  0  0  0  0  0  0
    0.0000    0.0000    0.0000 N   0  0  0  0  0  0  0  0  0  0  0  0
    0.0000    0.0000    0.0000 C   0  0  0  0  0  0  0  0  0  0  0  0
    0.0000    0.0000    0.0000 C   0  0  0  0  0  0  0  0  0  0  0  0
    0.0000    0.0000    0.0000 C   0  0  0  0  0  0  0  0  0  0  0  0
    0.0000    0.0000    0.0000 N   0  0  0  0  0  0  0  0  0  0  0  0
    0.0000    0.0000    0.0000 N   0  0  0  0  0  0  0  0  0  0  0  0
    0.0000    0.0000    0.0000 C   0  0  0  0  0  0  0  0  0  0  0  0
    0.0000    0.0000    0.0000 C   0  0  0  0  0  0  0  0  0  0  0  0
    0.0000    0.0000    0.0000 C   0  0  0  0  0  0  0  0  0  0  0  0
    0.0000    0.0000    0.0000 C   0  0  0  0  0  0  0  0  0  0  0  0
    0.0000    0.0000    0.0000 C   0  0  0  0  0  0  0  0  0  0  0  0
    0.0000    0.0000    0.0000 C   0  0  0  0  0  0  0  0  0  0  0  0
    0.0000    0.0000    0.0000 C   0  0  0  0  0  0  0  0  0  0  0  0
    0.0000    0.0000    0.0000 N   0  0  0  0  0  0  0  0  0  0  0  0
    0.0000    0.0000    0.0000 O   0  0  0  0  0  0  0  0  0  0  0  0
    0.0000    0.0000    0.0000 C   0  0  0  0  0  0  0  0  0  0  0  0
    0.0000    0.0000    0.0000 C   0  0  0  0  0  0  0  0  0  0  0  0
    0.0000    0.0000    0.0000 C   0  0  0  0  0  0  0  0  0  0  0  0
    0.0000    0.0000    0.0000 C   0  0  0  0  0  0  0  0  0  0  0  0
    0.0000    0.0000    0.0000 O   0  0  0  0  0  0  0  0  0  0  0  0
    0.0000    0.0000    0.0000 O   0  0  0  0  0  0  0  0  0  0  0  0
    0.0000    0.0000    0.0000 P   0  0  0  0  0  0  0  0  0  0  0  0
    0.0000    0.0000    0.0000 O   0  0  0  0  0  0  0  0  0  0  0  0
    0.0000    0.0000    0.0000 O   0  0  0  0  0  0  0  0  0  0  0  0
    0.0000    0.0000    0.0000 O   0  0  0  0  0  0  0  0  0  0  0  0
    0.0000    0.0000    0.0000 C   0  0  0  0  0  0  0  0  0  0  0  0
    0.0000    0.0000    0.0000 C   0  0  0  0  0  0  0  0  0  0  0  0
  1  2  2  0
  2  3  1  0
  2  4  1  0
  4  5  2  0
  4  6  1  0
  5  7  1  0
  8  6  2  0
  6  9  1  0
 10  7  1  0
  7 11  2  0
 11  8  1  0
  9 12  2  0
 13 10  1  0
 12 14  1  0
 12  3  1  0
 15 13  1  0
 16 15  2  0
 15 17  1  0
 18 16  1  0
 17 19  2  0
 20 18  2  0
 19 20  1  0
 21 20  1  0
 22 21  1  0
 21 23  2  0
 24 22  1  0
 25 24  1  0
 24 26  1  0
 27 25  1  0
 26 28  2  0
 26 29  1  0
 30 27  1  0
 31 30  1  0
 30 32  2  0
 30 33  1  0
 34 31  1  0
 35 34  1  0
M  END
>  <pIC50>  (144) 
5.89

>  <ChEMBL_ID>  (144) 
CHEMBL294973

>  <document_journal>  (144) 
J. Med. Chem.

>  <bao_endpoint>  (144) 
BAO_0000190

>  <potential_duplicate>  (144) 
False

>  <uo_units>  (144) 
UO_0000065

>  <canonical_smiles>  (144) 
CCOP(=O)(O)CCC(NC(=O)c1ccc(NCc2cnc3nc(N)nc(O)c3c2)cc1)C(=O)O

>  <parent_molecule_chembl_id>  (144) 
CHEMBL294973

>  <assay_type>  (144) 
B

>  <src_id>  (144) 
1

>  <ligand_efficiency>  (144) 
{u'le': u'0.23', u'bei': u'11.67', u'sei': u'2.68', u'lle': u'5.48'}

>  <standard_flag>  (144) 
True

>  <molecule_chembl_id>  (144) 
CHEMBL294973

>  <target_organism>  (144) 
Homo sapiens

>  <standard_units>  (144) 
nM

>  <record_id>  (144) 
65269

>  <document_chembl_id>  (144) 
CHEMBL1125453

>  <bao_format>  (144) 
BAO_0000357

>  <data_validity_description>  (144) 
None

>  <activity_id>  (144) 
739202

>  <standard_type>  (144) 
IC50

>  <target_chembl_id>  (144) 
CHEMBL202

>  <data_validity_comment>  (144) 
None

>  <published_value>  (144) 
1.3

>  <document_year>  (144) 
1992

>  <target_pref_name>  (144) 
Dihydrofolate reductase

>  <assay_chembl_id>  (144) 
CHEMBL884437

>  <standard_relation>  (144) 
=

>  <assay_description>  (144) 
In vitro inhibition of human dihydrofolate reductase (DHFR)

>  <published_relation>  (144) 
=

>  <standard_value>  (144) 
1300

>  <qudt_units>  (144) 
http://www.openphacts.org/units/Nanomolar

>  <target_tax_id>  (144) 
9606

>  <bao_label>  (144) 
single protein format

>  <published_units>  (144) 
uM

>  <pchembl_value>  (144) 
5.89

>  <published_type>  (144) 
IC50

>  <activity_comment>  (144) 
None

$$$$

     RDKit          

 33 35  0  0  0  0  0  0  0  0999 V2000
    0.0000    0.0000    0.0000 O   0  0  0  0  0  0  0  0  0  0  0  0
    0.0000    0.0000    0.0000 C   0  0  0  0  0  0  0  0  0  0  0  0
    0.0000    0.0000    0.0000 N   0  0  0  0  0  0  0  0  0  0  0  0
    0.0000    0.0000    0.0000 C   0  0  0  0  0  0  0  0  0  0  0  0
    0.0000    0.0000    0.0000 C   0  0  0  0  0  0  0  0  0  0  0  0
    0.0000    0.0000    0.0000 C   0  0  0  0  0  0  0  0  0  0  0  0
    0.0000    0.0000    0.0000 C   0  0  0  0  0  0  0  0  0  0  0  0
    0.0000    0.0000    0.0000 N   0  0  0  0  0  0  0  0  0  0  0  0
    0.0000    0.0000    0.0000 N   0  0  0  0  0  0  0  0  0  0  0  0
    0.0000    0.0000    0.0000 C   0  0  0  0  0  0  0  0  0  0  0  0
    0.0000    0.0000    0.0000 C   0  0  0  0  0  0  0  0  0  0  0  0
    0.0000    0.0000    0.0000 C   0  0  0  0  0  0  0  0  0  0  0  0
    0.0000    0.0000    0.0000 N   0  0  0  0  0  0  0  0  0  0  0  0
    0.0000    0.0000    0.0000 N   0  0  0  0  0  0  0  0  0  0  0  0
    0.0000    0.0000    0.0000 C   0  0  0  0  0  0  0  0  0  0  0  0
    0.0000    0.0000    0.0000 C   0  0  0  0  0  0  0  0  0  0  0  0
    0.0000    0.0000    0.0000 C   0  0  0  0  0  0  0  0  0  0  0  0
    0.0000    0.0000    0.0000 C   0  0  0  0  0  0  0  0  0  0  0  0
    0.0000    0.0000    0.0000 C   0  0  0  0  0  0  0  0  0  0  0  0
    0.0000    0.0000    0.0000 C   0  0  0  0  0  0  0  0  0  0  0  0
    0.0000    0.0000    0.0000 C   0  0  0  0  0  0  0  0  0  0  0  0
    0.0000    0.0000    0.0000 O   0  0  0  0  0  0  0  0  0  0  0  0
    0.0000    0.0000    0.0000 N   0  0  0  0  0  0  0  0  0  0  0  0
    0.0000    0.0000    0.0000 C   0  0  0  0  0  0  0  0  0  0  0  0
    0.0000    0.0000    0.0000 C   0  0  0  0  0  0  0  0  0  0  0  0
    0.0000    0.0000    0.0000 C   0  0  0  0  0  0  0  0  0  0  0  0
    0.0000    0.0000    0.0000 C   0  0  0  0  0  0  0  0  0  0  0  0
    0.0000    0.0000    0.0000 O   0  0  0  0  0  0  0  0  0  0  0  0
    0.0000    0.0000    0.0000 O   0  0  0  0  0  0  0  0  0  0  0  0
    0.0000    0.0000    0.0000 S   0  0  0  0  0  0  0  0  0  0  0  0
    0.0000    0.0000    0.0000 O   0  0  0  0  0  0  0  0  0  0  0  0
    0.0000    0.0000    0.0000 O   0  0  0  0  0  0  0  0  0  0  0  0
    0.0000    0.0000    0.0000 O   0  0  0  0  0  0  0  0  0  0  0  0
  1  2  2  0
  2  3  1  0
  2  4  1  0
  4  5  1  0
  6  4  2  0
  5  7  1  0
  8  6  1  0
  6  9  1  0
  7 10  1  0
  7 11  1  0
 11  8  1  0
  9 12  2  0
 10 13  1  0
 14 12  1  0
 12  3  1  0
 13 15  1  0
 15 16  2  0
 17 15  1  0
 16 18  1  0
 19 17  2  0
 18 20  2  0
 20 19  1  0
 20 21  1  0
 21 22  2  0
 21 23  1  0
 23 24  1  0
 24 25  1  0
 24 26  1  0
 25 27  1  0
 26 28  2  0
 26 29  1  0
 27 30  1  0
 30 31  2  0
 30 32  2  0
 30 33  1  0
M  END
>  <pIC50>  (145) 
4.92

>  <ChEMBL_ID>  (145) 
CHEMBL417696

>  <document_journal>  (145) 
J. Med. Chem.

>  <bao_endpoint>  (145) 
BAO_0000190

>  <potential_duplicate>  (145) 
False

>  <uo_units>  (145) 
UO_0000065

>  <canonical_smiles>  (145) 
Nc1nc(O)c2CC(CNc3ccc(cc3)C(=O)NC(CCS(=O)(=O)O)C(=O)O)CNc2n1

>  <parent_molecule_chembl_id>  (145) 
CHEMBL417696

>  <assay_type>  (145) 
B

>  <src_id>  (145) 
1

>  <ligand_efficiency>  (145) 
{u'le': u'0.2', u'bei': u'10.24', u'sei': u'2.18', u'lle': u'4.53'}

>  <standard_flag>  (145) 
True

>  <molecule_chembl_id>  (145) 
CHEMBL417696

>  <target_organism>  (145) 
Homo sapiens

>  <standard_units>  (145) 
nM

>  <record_id>  (145) 
65265

>  <document_chembl_id>  (145) 
CHEMBL1125453

>  <bao_format>  (145) 
BAO_0000357

>  <data_validity_description>  (145) 
None

>  <activity_id>  (145) 
740464

>  <standard_type>  (145) 
IC50

>  <target_chembl_id>  (145) 
CHEMBL202

>  <data_validity_comment>  (145) 
None

>  <published_value>  (145) 
12

>  <document_year>  (145) 
1992

>  <target_pref_name>  (145) 
Dihydrofolate reductase

>  <assay_chembl_id>  (145) 
CHEMBL884437

>  <standard_relation>  (145) 
=

>  <assay_description>  (145) 
In vitro inhibition of human dihydrofolate reductase (DHFR)

>  <published_relation>  (145) 
=

>  <standard_value>  (145) 
12000

>  <qudt_units>  (145) 
http://www.openphacts.org/units/Nanomolar

>  <target_tax_id>  (145) 
9606

>  <bao_label>  (145) 
single protein format

>  <published_units>  (145) 
uM

>  <pchembl_value>  (145) 
4.92

>  <published_type>  (145) 
IC50

>  <activity_comment>  (145) 
None

$$$$

     RDKit          

 32 34  0  0  0  0  0  0  0  0999 V2000
    0.0000    0.0000    0.0000 O   0  0  0  0  0  0  0  0  0  0  0  0
    0.0000    0.0000    0.0000 C   0  0  0  0  0  0  0  0  0  0  0  0
    0.0000    0.0000    0.0000 N   0  0  0  0  0  0  0  0  0  0  0  0
    0.0000    0.0000    0.0000 C   0  0  0  0  0  0  0  0  0  0  0  0
    0.0000    0.0000    0.0000 C   0  0  0  0  0  0  0  0  0  0  0  0
    0.0000    0.0000    0.0000 C   0  0  0  0  0  0  0  0  0  0  0  0
    0.0000    0.0000    0.0000 C   0  0  0  0  0  0  0  0  0  0  0  0
    0.0000    0.0000    0.0000 C   0  0  0  0  0  0  0  0  0  0  0  0
    0.0000    0.0000    0.0000 N   0  0  0  0  0  0  0  0  0  0  0  0
    0.0000    0.0000    0.0000 C   0  0  0  0  0  0  0  0  0  0  0  0
    0.0000    0.0000    0.0000 C   0  0  0  0  0  0  0  0  0  0  0  0
    0.0000    0.0000    0.0000 C   0  0  0  0  0  0  0  0  0  0  0  0
    0.0000    0.0000    0.0000 N   0  0  0  0  0  0  0  0  0  0  0  0
    0.0000    0.0000    0.0000 N   0  0  0  0  0  0  0  0  0  0  0  0
    0.0000    0.0000    0.0000 C   0  0  0  0  0  0  0  0  0  0  0  0
    0.0000    0.0000    0.0000 C   0  0  0  0  0  0  0  0  0  0  0  0
    0.0000    0.0000    0.0000 C   0  0  0  0  0  0  0  0  0  0  0  0
    0.0000    0.0000    0.0000 C   0  0  0  0  0  0  0  0  0  0  0  0
    0.0000    0.0000    0.0000 C   0  0  0  0  0  0  0  0  0  0  0  0
    0.0000    0.0000    0.0000 C   0  0  0  0  0  0  0  0  0  0  0  0
    0.0000    0.0000    0.0000 C   0  0  0  0  0  0  0  0  0  0  0  0
    0.0000    0.0000    0.0000 O   0  0  0  0  0  0  0  0  0  0  0  0
    0.0000    0.0000    0.0000 N   0  0  0  0  0  0  0  0  0  0  0  0
    0.0000    0.0000    0.0000 C   0  0  0  0  0  0  0  0  0  0  0  0
    0.0000    0.0000    0.0000 C   0  0  0  0  0  0  0  0  0  0  0  0
    0.0000    0.0000    0.0000 C   0  0  0  0  0  0  0  0  0  0  0  0
    0.0000    0.0000    0.0000 C   0  0  0  0  0  0  0  0  0  0  0  0
    0.0000    0.0000    0.0000 O   0  0  0  0  0  0  0  0  0  0  0  0
    0.0000    0.0000    0.0000 O   0  0  0  0  0  0  0  0  0  0  0  0
    0.0000    0.0000    0.0000 C   0  0  0  0  0  0  0  0  0  0  0  0
    0.0000    0.0000    0.0000 O   0  0  0  0  0  0  0  0  0  0  0  0
    0.0000    0.0000    0.0000 O   0  0  0  0  0  0  0  0  0  0  0  0
  1  2  2  0
  2  3  1  0
  2  4  1  0
  4  5  2  0
  6  4  1  0
  5  7  1  0
  8  6  2  0
  6  9  1  0
  7 10  1  0
  7 11  2  0
 11  8  1  0
  9 12  2  0
 10 13  1  0
 14 12  1  0
 12  3  1  0
 13 15  1  0
 15 16  2  0
 17 15  1  0
 16 18  1  0
 19 17  2  0
 18 20  2  0
 20 19  1  0
 20 21  1  0
 21 22  2  0
 21 23  1  0
 23 24  1  0
 24 25  1  0
 24 26  1  0
 25 27  1  0
 26 28  2  0
 26 29  1  0
 27 30  1  0
 30 31  2  0
 30 32  1  0
M  END
>  <pIC50>  (146) 
7.47

>  <ChEMBL_ID>  (146) 
CHEMBL23977

>  <document_journal>  (146) 
J. Med. Chem.

>  <bao_endpoint>  (146) 
BAO_0000190

>  <potential_duplicate>  (146) 
False

>  <uo_units>  (146) 
UO_0000065

>  <canonical_smiles>  (146) 
Nc1nc(O)c2cc(CNc3ccc(cc3)C(=O)NC(CCC(=O)O)C(=O)O)ccc2n1

>  <parent_molecule_chembl_id>  (146) 
CHEMBL23977

>  <assay_type>  (146) 
B

>  <src_id>  (146) 
1

>  <ligand_efficiency>  (146) 
{u'le': u'0.32', u'bei': u'17', u'sei': u'3.98', u'lle': u'5.74'}

>  <standard_flag>  (146) 
True

>  <molecule_chembl_id>  (146) 
CHEMBL23977

>  <target_organism>  (146) 
Homo sapiens

>  <standard_units>  (146) 
nM

>  <record_id>  (146) 
270931

>  <document_chembl_id>  (146) 
CHEMBL1124218

>  <bao_format>  (146) 
BAO_0000219

>  <data_validity_description>  (146) 
None

>  <activity_id>  (146) 
742167

>  <standard_type>  (146) 
IC50

>  <target_chembl_id>  (146) 
CHEMBL202

>  <data_validity_comment>  (146) 
None

>  <published_value>  (146) 
0.034

>  <document_year>  (146) 
1988

>  <target_pref_name>  (146) 
Dihydrofolate reductase

>  <assay_chembl_id>  (146) 
CHEMBL669446

>  <standard_relation>  (146) 
=

>  <assay_description>  (146) 
Inhibitory activity against dihydrofolate reductase (DHFR) obtained from human WIL2 cells

>  <published_relation>  (146) 
=

>  <standard_value>  (146) 
34

>  <qudt_units>  (146) 
http://www.openphacts.org/units/Nanomolar

>  <target_tax_id>  (146) 
9606

>  <bao_label>  (146) 
cell-based format

>  <published_units>  (146) 
uM

>  <pchembl_value>  (146) 
7.47

>  <published_type>  (146) 
I50

>  <activity_comment>  (146) 
None

$$$$

     RDKit          

 35 37  0  0  0  0  0  0  0  0999 V2000
    0.0000    0.0000    0.0000 N   0  0  0  0  0  0  0  0  0  0  0  0
    0.0000    0.0000    0.0000 C   0  0  0  0  0  0  0  0  0  0  0  0
    0.0000    0.0000    0.0000 N   0  0  0  0  0  0  0  0  0  0  0  0
    0.0000    0.0000    0.0000 C   0  0  0  0  0  0  0  0  0  0  0  0
    0.0000    0.0000    0.0000 N   0  0  0  0  0  0  0  0  0  0  0  0
    0.0000    0.0000    0.0000 C   0  0  0  0  0  0  0  0  0  0  0  0
    0.0000    0.0000    0.0000 C   0  0  0  0  0  0  0  0  0  0  0  0
    0.0000    0.0000    0.0000 C   0  0  0  0  0  0  0  0  0  0  0  0
    0.0000    0.0000    0.0000 C   0  0  0  0  0  0  0  0  0  0  0  0
    0.0000    0.0000    0.0000 C   0  0  0  0  0  0  0  0  0  0  0  0
    0.0000    0.0000    0.0000 C   0  0  0  0  0  0  0  0  0  0  0  0
    0.0000    0.0000    0.0000 N   0  0  0  0  0  0  0  0  0  0  0  0
    0.0000    0.0000    0.0000 N   0  0  0  0  0  0  0  0  0  0  0  0
    0.0000    0.0000    0.0000 C   0  0  0  0  0  0  0  0  0  0  0  0
    0.0000    0.0000    0.0000 C   0  0  0  0  0  0  0  0  0  0  0  0
    0.0000    0.0000    0.0000 C   0  0  0  0  0  0  0  0  0  0  0  0
    0.0000    0.0000    0.0000 C   0  0  0  0  0  0  0  0  0  0  0  0
    0.0000    0.0000    0.0000 C   0  0  0  0  0  0  0  0  0  0  0  0
    0.0000    0.0000    0.0000 C   0  0  0  0  0  0  0  0  0  0  0  0
    0.0000    0.0000    0.0000 C   0  0  0  0  0  0  0  0  0  0  0  0
    0.0000    0.0000    0.0000 C   0  0  0  0  0  0  0  0  0  0  0  0
    0.0000    0.0000    0.0000 C   0  0  0  0  0  0  0  0  0  0  0  0
    0.0000    0.0000    0.0000 C   0  0  0  0  0  0  0  0  0  0  0  0
    0.0000    0.0000    0.0000 C   0  0  0  0  0  0  0  0  0  0  0  0
    0.0000    0.0000    0.0000 O   0  0  0  0  0  0  0  0  0  0  0  0
    0.0000    0.0000    0.0000 N   0  0  0  0  0  0  0  0  0  0  0  0
    0.0000    0.0000    0.0000 C   0  0  0  0  0  0  0  0  0  0  0  0
    0.0000    0.0000    0.0000 C   0  0  0  0  0  0  0  0  0  0  0  0
    0.0000    0.0000    0.0000 C   0  0  0  0  0  0  0  0  0  0  0  0
    0.0000    0.0000    0.0000 C   0  0  0  0  0  0  0  0  0  0  0  0
    0.0000    0.0000    0.0000 O   0  0  0  0  0  0  0  0  0  0  0  0
    0.0000    0.0000    0.0000 O   0  0  0  0  0  0  0  0  0  0  0  0
    0.0000    0.0000    0.0000 C   0  0  0  0  0  0  0  0  0  0  0  0
    0.0000    0.0000    0.0000 O   0  0  0  0  0  0  0  0  0  0  0  0
    0.0000    0.0000    0.0000 O   0  0  0  0  0  0  0  0  0  0  0  0
  1  2  1  0
  2  3  2  0
  3  4  1  0
  4  5  1  0
  4  6  2  0
  6  7  1  0
  7  8  2  0
  8  9  1  0
  9 10  2  0
 10 11  1  0
 11 12  2  0
  8 13  1  0
 13 14  1  0
 14 15  1  0
 15 16  3  0
 13 17  1  0
 17 18  1  0
 18 19  2  0
 19 20  1  0
 20 21  2  0
 21 22  1  0
 22 23  2  0
 21 24  1  0
 24 25  2  0
 24 26  1  0
 26 27  1  0
 27 28  1  0
 28 29  1  0
 29 30  1  0
 30 31  2  0
 30 32  1  0
 27 33  1  0
 33 34  2  0
 33 35  1  0
 12  2  1  0
 11  6  1  0
 23 18  1  0
M  END
>  <pIC50>  (147) 
8.28

>  <ChEMBL_ID>  (147) 
CHEMBL141648

>  <document_journal>  (147) 
J. Med. Chem.

>  <bao_endpoint>  (147) 
BAO_0000190

>  <potential_duplicate>  (147) 
False

>  <uo_units>  (147) 
UO_0000065

>  <canonical_smiles>  (147) 
Nc1nc(N)c2cc(ccc2n1)N(CC#C)Cc3ccc(cc3)C(=O)NC(CCC(=O)O)C(=O)O

>  <parent_molecule_chembl_id>  (147) 
CHEMBL141648

>  <assay_type>  (147) 
B

>  <src_id>  (147) 
1

>  <ligand_efficiency>  (147) 
{u'le': u'0.32', u'bei': u'17.37', u'sei': u'4.48', u'lle': u'5.51'}

>  <standard_flag>  (147) 
True

>  <molecule_chembl_id>  (147) 
CHEMBL141648

>  <target_organism>  (147) 
Homo sapiens

>  <standard_units>  (147) 
nM

>  <record_id>  (147) 
270928

>  <document_chembl_id>  (147) 
CHEMBL1124218

>  <bao_format>  (147) 
BAO_0000219

>  <data_validity_description>  (147) 
None

>  <activity_id>  (147) 
742169

>  <standard_type>  (147) 
IC50

>  <target_chembl_id>  (147) 
CHEMBL202

>  <data_validity_comment>  (147) 
None

>  <published_value>  (147) 
0.0053

>  <document_year>  (147) 
1988

>  <target_pref_name>  (147) 
Dihydrofolate reductase

>  <assay_chembl_id>  (147) 
CHEMBL669446

>  <standard_relation>  (147) 
=

>  <assay_description>  (147) 
Inhibitory activity against dihydrofolate reductase (DHFR) obtained from human WIL2 cells

>  <published_relation>  (147) 
=

>  <standard_value>  (147) 
5.3

>  <qudt_units>  (147) 
http://www.openphacts.org/units/Nanomolar

>  <target_tax_id>  (147) 
9606

>  <bao_label>  (147) 
cell-based format

>  <published_units>  (147) 
uM

>  <pchembl_value>  (147) 
8.28

>  <published_type>  (147) 
I50

>  <activity_comment>  (147) 
None

$$$$

     RDKit          

 32 34  0  0  0  0  0  0  0  0999 V2000
    0.0000    0.0000    0.0000 N   0  0  0  0  0  0  0  0  0  0  0  0
    0.0000    0.0000    0.0000 C   0  0  0  0  0  0  0  0  0  0  0  0
    0.0000    0.0000    0.0000 N   0  0  0  0  0  0  0  0  0  0  0  0
    0.0000    0.0000    0.0000 C   0  0  0  0  0  0  0  0  0  0  0  0
    0.0000    0.0000    0.0000 N   0  0  0  0  0  0  0  0  0  0  0  0
    0.0000    0.0000    0.0000 C   0  0  0  0  0  0  0  0  0  0  0  0
    0.0000    0.0000    0.0000 C   0  0  0  0  0  0  0  0  0  0  0  0
    0.0000    0.0000    0.0000 C   0  0  0  0  0  0  0  0  0  0  0  0
    0.0000    0.0000    0.0000 N   0  0  0  0  0  0  0  0  0  0  0  0
    0.0000    0.0000    0.0000 C   0  0  0  0  0  0  0  0  0  0  0  0
    0.0000    0.0000    0.0000 C   0  0  0  0  0  0  0  0  0  0  0  0
    0.0000    0.0000    0.0000 C   0  0  0  0  0  0  0  0  0  0  0  0
    0.0000    0.0000    0.0000 C   0  0  0  0  0  0  0  0  0  0  0  0
    0.0000    0.0000    0.0000 C   0  0  0  0  0  0  0  0  0  0  0  0
    0.0000    0.0000    0.0000 C   0  0  0  0  0  0  0  0  0  0  0  0
    0.0000    0.0000    0.0000 C   0  0  0  0  0  0  0  0  0  0  0  0
    0.0000    0.0000    0.0000 C   0  0  0  0  0  0  0  0  0  0  0  0
    0.0000    0.0000    0.0000 O   0  0  0  0  0  0  0  0  0  0  0  0
    0.0000    0.0000    0.0000 N   0  0  0  0  0  0  0  0  0  0  0  0
    0.0000    0.0000    0.0000 C   0  0  0  0  0  0  0  0  0  0  0  0
    0.0000    0.0000    0.0000 C   0  0  0  0  0  0  0  0  0  0  0  0
    0.0000    0.0000    0.0000 C   0  0  0  0  0  0  0  0  0  0  0  0
    0.0000    0.0000    0.0000 C   0  0  0  0  0  0  0  0  0  0  0  0
    0.0000    0.0000    0.0000 O   0  0  0  0  0  0  0  0  0  0  0  0
    0.0000    0.0000    0.0000 O   0  0  0  0  0  0  0  0  0  0  0  0
    0.0000    0.0000    0.0000 C   0  0  0  0  0  0  0  0  0  0  0  0
    0.0000    0.0000    0.0000 O   0  0  0  0  0  0  0  0  0  0  0  0
    0.0000    0.0000    0.0000 O   0  0  0  0  0  0  0  0  0  0  0  0
    0.0000    0.0000    0.0000 C   0  0  0  0  0  0  0  0  0  0  0  0
    0.0000    0.0000    0.0000 C   0  0  0  0  0  0  0  0  0  0  0  0
    0.0000    0.0000    0.0000 C   0  0  0  0  0  0  0  0  0  0  0  0
    0.0000    0.0000    0.0000 N   0  0  0  0  0  0  0  0  0  0  0  0
  1  2  1  0
  2  3  2  0
  3  4  1  0
  4  5  1  0
  4  6  2  0
  6  7  1  0
  7  8  2  0
  8  9  1  0
  9 10  1  0
 10 11  1  0
 11 12  2  0
 12 13  1  0
 13 14  2  0
 14 15  1  0
 15 16  2  0
 14 17  1  0
 17 18  2  0
 17 19  1  0
 19 20  1  0
 20 21  1  0
 21 22  1  0
 22 23  1  0
 23 24  2  0
 23 25  1  0
 20 26  1  0
 26 27  2  0
 26 28  1  0
  8 29  1  0
 29 30  2  0
 30 31  1  0
 31 32  2  0
 32  2  1  0
 31  6  1  0
 16 11  1  0
M  END
>  <pIC50>  (148) 
8.07

>  <ChEMBL_ID>  (148) 
CHEMBL423123

>  <document_journal>  (148) 
J. Med. Chem.

>  <bao_endpoint>  (148) 
BAO_0000190

>  <potential_duplicate>  (148) 
False

>  <uo_units>  (148) 
UO_0000065

>  <canonical_smiles>  (148) 
Nc1nc(N)c2cc(NCc3ccc(cc3)C(=O)NC(CCC(=O)O)C(=O)O)ccc2n1

>  <parent_molecule_chembl_id>  (148) 
CHEMBL423123

>  <assay_type>  (148) 
B

>  <src_id>  (148) 
1

>  <ligand_efficiency>  (148) 
{u'le': u'0.34', u'bei': u'18.4', u'sei': u'4.17', u'lle': u'6.85'}

>  <standard_flag>  (148) 
True

>  <molecule_chembl_id>  (148) 
CHEMBL423123

>  <target_organism>  (148) 
Homo sapiens

>  <standard_units>  (148) 
nM

>  <record_id>  (148) 
270910

>  <document_chembl_id>  (148) 
CHEMBL1124218

>  <bao_format>  (148) 
BAO_0000219

>  <data_validity_description>  (148) 
None

>  <activity_id>  (148) 
743687

>  <standard_type>  (148) 
IC50

>  <target_chembl_id>  (148) 
CHEMBL202

>  <data_validity_comment>  (148) 
None

>  <published_value>  (148) 
0.0086

>  <document_year>  (148) 
1988

>  <target_pref_name>  (148) 
Dihydrofolate reductase

>  <assay_chembl_id>  (148) 
CHEMBL669446

>  <standard_relation>  (148) 
=

>  <assay_description>  (148) 
Inhibitory activity against dihydrofolate reductase (DHFR) obtained from human WIL2 cells

>  <published_relation>  (148) 
=

>  <standard_value>  (148) 
8.6

>  <qudt_units>  (148) 
http://www.openphacts.org/units/Nanomolar

>  <target_tax_id>  (148) 
9606

>  <bao_label>  (148) 
cell-based format

>  <published_units>  (148) 
uM

>  <pchembl_value>  (148) 
8.07

>  <published_type>  (148) 
I50

>  <activity_comment>  (148) 
None

$$$$

     RDKit          

 32 34  0  0  0  0  0  0  0  0999 V2000
    0.0000    0.0000    0.0000 N   0  0  0  0  0  0  0  0  0  0  0  0
    0.0000    0.0000    0.0000 C   0  0  0  0  0  0  0  0  0  0  0  0
    0.0000    0.0000    0.0000 N   0  0  0  0  0  0  0  0  0  0  0  0
    0.0000    0.0000    0.0000 C   0  0  0  0  0  0  0  0  0  0  0  0
    0.0000    0.0000    0.0000 N   0  0  0  0  0  0  0  0  0  0  0  0
    0.0000    0.0000    0.0000 C   0  0  0  0  0  0  0  0  0  0  0  0
    0.0000    0.0000    0.0000 C   0  0  0  0  0  0  0  0  0  0  0  0
    0.0000    0.0000    0.0000 C   0  0  0  0  0  0  0  0  0  0  0  0
    0.0000    0.0000    0.0000 C   0  0  0  0  0  0  0  0  0  0  0  0
    0.0000    0.0000    0.0000 N   0  0  0  0  0  0  0  0  0  0  0  0
    0.0000    0.0000    0.0000 C   0  0  0  0  0  0  0  0  0  0  0  0
    0.0000    0.0000    0.0000 C   0  0  0  0  0  0  0  0  0  0  0  0
    0.0000    0.0000    0.0000 C   0  0  0  0  0  0  0  0  0  0  0  0
    0.0000    0.0000    0.0000 C   0  0  0  0  0  0  0  0  0  0  0  0
    0.0000    0.0000    0.0000 C   0  0  0  0  0  0  0  0  0  0  0  0
    0.0000    0.0000    0.0000 C   0  0  0  0  0  0  0  0  0  0  0  0
    0.0000    0.0000    0.0000 C   0  0  0  0  0  0  0  0  0  0  0  0
    0.0000    0.0000    0.0000 O   0  0  0  0  0  0  0  0  0  0  0  0
    0.0000    0.0000    0.0000 N   0  0  0  0  0  0  0  0  0  0  0  0
    0.0000    0.0000    0.0000 C   0  0  0  0  0  0  0  0  0  0  0  0
    0.0000    0.0000    0.0000 C   0  0  0  0  0  0  0  0  0  0  0  0
    0.0000    0.0000    0.0000 C   0  0  0  0  0  0  0  0  0  0  0  0
    0.0000    0.0000    0.0000 C   0  0  0  0  0  0  0  0  0  0  0  0
    0.0000    0.0000    0.0000 O   0  0  0  0  0  0  0  0  0  0  0  0
    0.0000    0.0000    0.0000 O   0  0  0  0  0  0  0  0  0  0  0  0
    0.0000    0.0000    0.0000 C   0  0  0  0  0  0  0  0  0  0  0  0
    0.0000    0.0000    0.0000 O   0  0  0  0  0  0  0  0  0  0  0  0
    0.0000    0.0000    0.0000 O   0  0  0  0  0  0  0  0  0  0  0  0
    0.0000    0.0000    0.0000 C   0  0  0  0  0  0  0  0  0  0  0  0
    0.0000    0.0000    0.0000 C   0  0  0  0  0  0  0  0  0  0  0  0
    0.0000    0.0000    0.0000 C   0  0  0  0  0  0  0  0  0  0  0  0
    0.0000    0.0000    0.0000 N   0  0  0  0  0  0  0  0  0  0  0  0
  1  2  1  0
  2  3  2  0
  3  4  1  0
  4  5  1  0
  4  6  2  0
  6  7  1  0
  7  8  2  0
  8  9  1  0
  9 10  1  0
 10 11  1  0
 11 12  2  0
 12 13  1  0
 13 14  2  0
 14 15  1  0
 15 16  2  0
 14 17  1  0
 17 18  2  0
 17 19  1  0
 19 20  1  0
 20 21  1  0
 21 22  1  0
 22 23  1  0
 23 24  2  0
 23 25  1  0
 20 26  1  0
 26 27  2  0
 26 28  1  0
  8 29  1  0
 29 30  2  0
 30 31  1  0
 31 32  2  0
 32  2  1  0
 31  6  1  0
 16 11  1  0
M  END
>  <pIC50>  (149) 
8.35

>  <ChEMBL_ID>  (149) 
CHEMBL305177

>  <document_journal>  (149) 
J. Med. Chem.

>  <bao_endpoint>  (149) 
BAO_0000190

>  <potential_duplicate>  (149) 
False

>  <uo_units>  (149) 
UO_0000065

>  <canonical_smiles>  (149) 
Nc1nc(N)c2cc(CNc3ccc(cc3)C(=O)NC(CCC(=O)O)C(=O)O)ccc2n1

>  <parent_molecule_chembl_id>  (149) 
CHEMBL305177

>  <assay_type>  (149) 
B

>  <src_id>  (149) 
1

>  <ligand_efficiency>  (149) 
{u'le': u'0.36', u'bei': u'19.04', u'sei': u'4.31', u'lle': u'7.13'}

>  <standard_flag>  (149) 
True

>  <molecule_chembl_id>  (149) 
CHEMBL305177

>  <target_organism>  (149) 
Homo sapiens

>  <standard_units>  (149) 
nM

>  <record_id>  (149) 
270915

>  <document_chembl_id>  (149) 
CHEMBL1124218

>  <bao_format>  (149) 
BAO_0000219

>  <data_validity_description>  (149) 
None

>  <activity_id>  (149) 
745064

>  <standard_type>  (149) 
IC50

>  <target_chembl_id>  (149) 
CHEMBL202

>  <data_validity_comment>  (149) 
None

>  <published_value>  (149) 
0.0045

>  <document_year>  (149) 
1988

>  <target_pref_name>  (149) 
Dihydrofolate reductase

>  <assay_chembl_id>  (149) 
CHEMBL669446

>  <standard_relation>  (149) 
=

>  <assay_description>  (149) 
Inhibitory activity against dihydrofolate reductase (DHFR) obtained from human WIL2 cells

>  <published_relation>  (149) 
=

>  <standard_value>  (149) 
4.5

>  <qudt_units>  (149) 
http://www.openphacts.org/units/Nanomolar

>  <target_tax_id>  (149) 
9606

>  <bao_label>  (149) 
cell-based format

>  <published_units>  (149) 
uM

>  <pchembl_value>  (149) 
8.35

>  <published_type>  (149) 
I50

>  <activity_comment>  (149) 
None

$$$$

     RDKit          

 35 37  0  0  0  0  0  0  0  0999 V2000
    0.0000    0.0000    0.0000 O   0  0  0  0  0  0  0  0  0  0  0  0
    0.0000    0.0000    0.0000 C   0  0  0  0  0  0  0  0  0  0  0  0
    0.0000    0.0000    0.0000 N   0  0  0  0  0  0  0  0  0  0  0  0
    0.0000    0.0000    0.0000 C   0  0  0  0  0  0  0  0  0  0  0  0
    0.0000    0.0000    0.0000 C   0  0  0  0  0  0  0  0  0  0  0  0
    0.0000    0.0000    0.0000 C   0  0  0  0  0  0  0  0  0  0  0  0
    0.0000    0.0000    0.0000 C   0  0  0  0  0  0  0  0  0  0  0  0
    0.0000    0.0000    0.0000 C   0  0  0  0  0  0  0  0  0  0  0  0
    0.0000    0.0000    0.0000 N   0  0  0  0  0  0  0  0  0  0  0  0
    0.0000    0.0000    0.0000 C   0  0  0  0  0  0  0  0  0  0  0  0
    0.0000    0.0000    0.0000 N   0  0  0  0  0  0  0  0  0  0  0  0
    0.0000    0.0000    0.0000 C   0  0  0  0  0  0  0  0  0  0  0  0
    0.0000    0.0000    0.0000 C   0  0  0  0  0  0  0  0  0  0  0  0
    0.0000    0.0000    0.0000 C   0  0  0  0  0  0  0  0  0  0  0  0
    0.0000    0.0000    0.0000 N   0  0  0  0  0  0  0  0  0  0  0  0
    0.0000    0.0000    0.0000 C   0  0  0  0  0  0  0  0  0  0  0  0
    0.0000    0.0000    0.0000 C   0  0  0  0  0  0  0  0  0  0  0  0
    0.0000    0.0000    0.0000 C   0  0  0  0  0  0  0  0  0  0  0  0
    0.0000    0.0000    0.0000 C   0  0  0  0  0  0  0  0  0  0  0  0
    0.0000    0.0000    0.0000 C   0  0  0  0  0  0  0  0  0  0  0  0
    0.0000    0.0000    0.0000 C   0  0  0  0  0  0  0  0  0  0  0  0
    0.0000    0.0000    0.0000 C   0  0  0  0  0  0  0  0  0  0  0  0
    0.0000    0.0000    0.0000 C   0  0  0  0  0  0  0  0  0  0  0  0
    0.0000    0.0000    0.0000 C   0  0  0  0  0  0  0  0  0  0  0  0
    0.0000    0.0000    0.0000 O   0  0  0  0  0  0  0  0  0  0  0  0
    0.0000    0.0000    0.0000 N   0  0  0  0  0  0  0  0  0  0  0  0
    0.0000    0.0000    0.0000 C   0  0  0  0  0  0  0  0  0  0  0  0
    0.0000    0.0000    0.0000 C   0  0  0  0  0  0  0  0  0  0  0  0
    0.0000    0.0000    0.0000 C   0  0  0  0  0  0  0  0  0  0  0  0
    0.0000    0.0000    0.0000 C   0  0  0  0  0  0  0  0  0  0  0  0
    0.0000    0.0000    0.0000 O   0  0  0  0  0  0  0  0  0  0  0  0
    0.0000    0.0000    0.0000 O   0  0  0  0  0  0  0  0  0  0  0  0
    0.0000    0.0000    0.0000 C   0  0  0  0  0  0  0  0  0  0  0  0
    0.0000    0.0000    0.0000 O   0  0  0  0  0  0  0  0  0  0  0  0
    0.0000    0.0000    0.0000 O   0  0  0  0  0  0  0  0  0  0  0  0
  1  2  2  0
  2  3  1  0
  2  4  1  0
  4  5  2  0
  6  4  1  0
  5  7  1  0
  8  6  2  0
  6  9  1  0
  7 10  2  0
  7 11  1  0
 10  8  1  0
  9 12  2  0
 11 13  1  0
 11 14  1  0
 15 12  1  0
 12  3  1  0
 13 16  1  0
 14 17  1  0
 16 18  3  0
 17 19  2  0
 20 17  1  0
 19 21  1  0
 22 20  2  0
 21 23  2  0
 23 22  1  0
 23 24  1  0
 24 25  2  0
 24 26  1  0
 26 27  1  0
 27 28  1  0
 27 29  1  0
 28 30  1  0
 29 31  2  0
 29 32  1  0
 30 33  1  0
 33 34  2  0
 33 35  1  0
M  END
>  <pIC50>  (150) 
5.52

>  <ChEMBL_ID>  (150) 
CHEMBL141857

>  <document_journal>  (150) 
J. Med. Chem.

>  <bao_endpoint>  (150) 
BAO_0000190

>  <potential_duplicate>  (150) 
False

>  <uo_units>  (150) 
UO_0000065

>  <canonical_smiles>  (150) 
Nc1nc(O)c2cc(ccc2n1)N(CC#C)Cc3ccc(cc3)C(=O)NC(CCC(=O)O)C(=O)O

>  <parent_molecule_chembl_id>  (150) 
CHEMBL141857

>  <assay_type>  (150) 
B

>  <src_id>  (150) 
1

>  <ligand_efficiency>  (150) 
{u'le': u'0.22', u'bei': u'11.57', u'sei': u'3.09', u'lle': u'2.25'}

>  <standard_flag>  (150) 
True

>  <molecule_chembl_id>  (150) 
CHEMBL141857

>  <target_organism>  (150) 
Homo sapiens

>  <standard_units>  (150) 
nM

>  <record_id>  (150) 
270933

>  <document_chembl_id>  (150) 
CHEMBL1124218

>  <bao_format>  (150) 
BAO_0000219

>  <data_validity_description>  (150) 
None

>  <activity_id>  (150) 
746082

>  <standard_type>  (150) 
IC50

>  <target_chembl_id>  (150) 
CHEMBL202

>  <data_validity_comment>  (150) 
None

>  <published_value>  (150) 
3

>  <document_year>  (150) 
1988

>  <target_pref_name>  (150) 
Dihydrofolate reductase

>  <assay_chembl_id>  (150) 
CHEMBL669446

>  <standard_relation>  (150) 
=

>  <assay_description>  (150) 
Inhibitory activity against dihydrofolate reductase (DHFR) obtained from human WIL2 cells

>  <published_relation>  (150) 
=

>  <standard_value>  (150) 
3000

>  <qudt_units>  (150) 
http://www.openphacts.org/units/Nanomolar

>  <target_tax_id>  (150) 
9606

>  <bao_label>  (150) 
cell-based format

>  <published_units>  (150) 
uM

>  <pchembl_value>  (150) 
5.52

>  <published_type>  (150) 
I50

>  <activity_comment>  (150) 
None

$$$$

     RDKit          

 33 35  0  0  0  0  0  0  0  0999 V2000
    0.0000    0.0000    0.0000 C   0  0  0  0  0  0  0  0  0  0  0  0
    0.0000    0.0000    0.0000 N   0  0  0  0  0  0  0  0  0  0  0  0
    0.0000    0.0000    0.0000 C   0  0  0  0  0  0  0  0  0  0  0  0
    0.0000    0.0000    0.0000 C   0  0  0  0  0  0  0  0  0  0  0  0
    0.0000    0.0000    0.0000 C   0  0  0  0  0  0  0  0  0  0  0  0
    0.0000    0.0000    0.0000 C   0  0  0  0  0  0  0  0  0  0  0  0
    0.0000    0.0000    0.0000 C   0  0  0  0  0  0  0  0  0  0  0  0
    0.0000    0.0000    0.0000 N   0  0  0  0  0  0  0  0  0  0  0  0
    0.0000    0.0000    0.0000 C   0  0  0  0  0  0  0  0  0  0  0  0
    0.0000    0.0000    0.0000 N   0  0  0  0  0  0  0  0  0  0  0  0
    0.0000    0.0000    0.0000 N   0  0  0  0  0  0  0  0  0  0  0  0
    0.0000    0.0000    0.0000 C   0  0  0  0  0  0  0  0  0  0  0  0
    0.0000    0.0000    0.0000 N   0  0  0  0  0  0  0  0  0  0  0  0
    0.0000    0.0000    0.0000 C   0  0  0  0  0  0  0  0  0  0  0  0
    0.0000    0.0000    0.0000 C   0  0  0  0  0  0  0  0  0  0  0  0
    0.0000    0.0000    0.0000 C   0  0  0  0  0  0  0  0  0  0  0  0
    0.0000    0.0000    0.0000 C   0  0  0  0  0  0  0  0  0  0  0  0
    0.0000    0.0000    0.0000 C   0  0  0  0  0  0  0  0  0  0  0  0
    0.0000    0.0000    0.0000 C   0  0  0  0  0  0  0  0  0  0  0  0
    0.0000    0.0000    0.0000 C   0  0  0  0  0  0  0  0  0  0  0  0
    0.0000    0.0000    0.0000 C   0  0  0  0  0  0  0  0  0  0  0  0
    0.0000    0.0000    0.0000 C   0  0  0  0  0  0  0  0  0  0  0  0
    0.0000    0.0000    0.0000 O   0  0  0  0  0  0  0  0  0  0  0  0
    0.0000    0.0000    0.0000 N   0  0  0  0  0  0  0  0  0  0  0  0
    0.0000    0.0000    0.0000 C   0  0  0  0  0  0  0  0  0  0  0  0
    0.0000    0.0000    0.0000 C   0  0  0  0  0  0  0  0  0  0  0  0
    0.0000    0.0000    0.0000 C   0  0  0  0  0  0  0  0  0  0  0  0
    0.0000    0.0000    0.0000 C   0  0  0  0  0  0  0  0  0  0  0  0
    0.0000    0.0000    0.0000 O   0  0  0  0  0  0  0  0  0  0  0  0
    0.0000    0.0000    0.0000 O   0  0  0  0  0  0  0  0  0  0  0  0
    0.0000    0.0000    0.0000 C   0  0  0  0  0  0  0  0  0  0  0  0
    0.0000    0.0000    0.0000 O   0  0  0  0  0  0  0  0  0  0  0  0
    0.0000    0.0000    0.0000 O   0  0  0  0  0  0  0  0  0  0  0  0
  1  2  1  0
  2  3  1  0
  3  4  1  0
  4  5  2  0
  5  6  1  0
  6  7  2  0
  7  8  1  0
  8  9  2  0
  9 10  1  0
  9 11  1  0
 11 12  2  0
 12 13  1  0
 12 14  1  0
 14 15  2  0
  2 16  1  0
 16 17  2  0
 17 18  1  0
 18 19  2  0
 19 20  1  0
 20 21  2  0
 19 22  1  0
 22 23  2  0
 22 24  1  0
 24 25  1  0
 25 26  1  0
 26 27  1  0
 27 28  1  0
 28 29  2  0
 28 30  1  0
 25 31  1  0
 31 32  2  0
 31 33  1  0
 15  4  1  0
 14  7  1  0
 21 16  1  0
M  END
>  <pIC50>  (151) 
8.41

>  <ChEMBL_ID>  (151) 
CHEMBL304397

>  <document_journal>  (151) 
J. Med. Chem.

>  <bao_endpoint>  (151) 
BAO_0000190

>  <potential_duplicate>  (151) 
False

>  <uo_units>  (151) 
UO_0000065

>  <canonical_smiles>  (151) 
CN(Cc1ccc2nc(N)nc(N)c2c1)c3ccc(cc3)C(=O)NC(CCC(=O)O)C(=O)O

>  <parent_molecule_chembl_id>  (151) 
CHEMBL304397

>  <assay_type>  (151) 
B

>  <src_id>  (151) 
1

>  <ligand_efficiency>  (151) 
{u'le': u'0.35', u'bei': u'18.58', u'sei': u'4.55', u'lle': u'6.83'}

>  <standard_flag>  (151) 
True

>  <molecule_chembl_id>  (151) 
CHEMBL304397

>  <target_organism>  (151) 
Homo sapiens

>  <standard_units>  (151) 
nM

>  <record_id>  (151) 
270926

>  <document_chembl_id>  (151) 
CHEMBL1124218

>  <bao_format>  (151) 
BAO_0000219

>  <data_validity_description>  (151) 
None

>  <activity_id>  (151) 
749826

>  <standard_type>  (151) 
IC50

>  <target_chembl_id>  (151) 
CHEMBL202

>  <data_validity_comment>  (151) 
None

>  <published_value>  (151) 
0.0039

>  <document_year>  (151) 
1988

>  <target_pref_name>  (151) 
Dihydrofolate reductase

>  <assay_chembl_id>  (151) 
CHEMBL669446

>  <standard_relation>  (151) 
=

>  <assay_description>  (151) 
Inhibitory activity against dihydrofolate reductase (DHFR) obtained from human WIL2 cells

>  <published_relation>  (151) 
=

>  <standard_value>  (151) 
3.9

>  <qudt_units>  (151) 
http://www.openphacts.org/units/Nanomolar

>  <target_tax_id>  (151) 
9606

>  <bao_label>  (151) 
cell-based format

>  <published_units>  (151) 
uM

>  <pchembl_value>  (151) 
8.41

>  <published_type>  (151) 
I50

>  <activity_comment>  (151) 
None

$$$$

     RDKit          

 33 35  0  0  0  0  0  0  0  0999 V2000
    0.0000    0.0000    0.0000 O   0  0  0  0  0  0  0  0  0  0  0  0
    0.0000    0.0000    0.0000 C   0  0  0  0  0  0  0  0  0  0  0  0
    0.0000    0.0000    0.0000 N   0  0  0  0  0  0  0  0  0  0  0  0
    0.0000    0.0000    0.0000 C   0  0  0  0  0  0  0  0  0  0  0  0
    0.0000    0.0000    0.0000 C   0  0  0  0  0  0  0  0  0  0  0  0
    0.0000    0.0000    0.0000 C   0  0  0  0  0  0  0  0  0  0  0  0
    0.0000    0.0000    0.0000 Cl  0  0  0  0  0  0  0  0  0  0  0  0
    0.0000    0.0000    0.0000 C   0  0  0  0  0  0  0  0  0  0  0  0
    0.0000    0.0000    0.0000 C   0  0  0  0  0  0  0  0  0  0  0  0
    0.0000    0.0000    0.0000 N   0  0  0  0  0  0  0  0  0  0  0  0
    0.0000    0.0000    0.0000 N   0  0  0  0  0  0  0  0  0  0  0  0
    0.0000    0.0000    0.0000 C   0  0  0  0  0  0  0  0  0  0  0  0
    0.0000    0.0000    0.0000 C   0  0  0  0  0  0  0  0  0  0  0  0
    0.0000    0.0000    0.0000 C   0  0  0  0  0  0  0  0  0  0  0  0
    0.0000    0.0000    0.0000 N   0  0  0  0  0  0  0  0  0  0  0  0
    0.0000    0.0000    0.0000 C   0  0  0  0  0  0  0  0  0  0  0  0
    0.0000    0.0000    0.0000 C   0  0  0  0  0  0  0  0  0  0  0  0
    0.0000    0.0000    0.0000 C   0  0  0  0  0  0  0  0  0  0  0  0
    0.0000    0.0000    0.0000 C   0  0  0  0  0  0  0  0  0  0  0  0
    0.0000    0.0000    0.0000 C   0  0  0  0  0  0  0  0  0  0  0  0
    0.0000    0.0000    0.0000 C   0  0  0  0  0  0  0  0  0  0  0  0
    0.0000    0.0000    0.0000 C   0  0  0  0  0  0  0  0  0  0  0  0
    0.0000    0.0000    0.0000 O   0  0  0  0  0  0  0  0  0  0  0  0
    0.0000    0.0000    0.0000 N   0  0  0  0  0  0  0  0  0  0  0  0
    0.0000    0.0000    0.0000 C   0  0  0  0  0  0  0  0  0  0  0  0
    0.0000    0.0000    0.0000 C   0  0  0  0  0  0  0  0  0  0  0  0
    0.0000    0.0000    0.0000 C   0  0  0  0  0  0  0  0  0  0  0  0
    0.0000    0.0000    0.0000 C   0  0  0  0  0  0  0  0  0  0  0  0
    0.0000    0.0000    0.0000 O   0  0  0  0  0  0  0  0  0  0  0  0
    0.0000    0.0000    0.0000 O   0  0  0  0  0  0  0  0  0  0  0  0
    0.0000    0.0000    0.0000 C   0  0  0  0  0  0  0  0  0  0  0  0
    0.0000    0.0000    0.0000 O   0  0  0  0  0  0  0  0  0  0  0  0
    0.0000    0.0000    0.0000 O   0  0  0  0  0  0  0  0  0  0  0  0
  1  2  2  0
  2  3  1  0
  2  4  1  0
  4  5  2  0
  6  4  1  0
  5  7  1  0
  5  8  1  0
  9  6  2  0
  6 10  1  0
  8 11  1  0
  8 12  2  0
 12  9  1  0
 10 13  2  0
 11 14  1  0
 15 13  1  0
 13  3  1  0
 14 16  1  0
 16 17  2  0
 18 16  1  0
 17 19  1  0
 20 18  2  0
 19 21  2  0
 21 20  1  0
 21 22  1  0
 22 23  2  0
 22 24  1  0
 24 25  1  0
 25 26  1  0
 25 27  1  0
 26 28  1  0
 27 29  2  0
 27 30  1  0
 28 31  1  0
 31 32  2  0
 31 33  1  0
M  END
>  <pIC50>  (152) 
7.0

>  <ChEMBL_ID>  (152) 
CHEMBL39851

>  <document_journal>  (152) 
J. Med. Chem.

>  <bao_endpoint>  (152) 
BAO_0000190

>  <potential_duplicate>  (152) 
False

>  <uo_units>  (152) 
UO_0000065

>  <canonical_smiles>  (152) 
Nc1nc(O)c2c(Cl)c(NCc3ccc(cc3)C(=O)NC(CCC(=O)O)C(=O)O)ccc2n1

>  <parent_molecule_chembl_id>  (152) 
CHEMBL39851

>  <assay_type>  (152) 
B

>  <src_id>  (152) 
1

>  <ligand_efficiency>  (152) 
{u'le': u'0.29', u'bei': u'14.77', u'sei': u'3.73', u'lle': u'4.61'}

>  <standard_flag>  (152) 
True

>  <molecule_chembl_id>  (152) 
CHEMBL39851

>  <target_organism>  (152) 
Homo sapiens

>  <standard_units>  (152) 
nM

>  <record_id>  (152) 
270911

>  <document_chembl_id>  (152) 
CHEMBL1124218

>  <bao_format>  (152) 
BAO_0000219

>  <data_validity_description>  (152) 
None

>  <activity_id>  (152) 
750048

>  <standard_type>  (152) 
IC50

>  <target_chembl_id>  (152) 
CHEMBL202

>  <data_validity_comment>  (152) 
None

>  <published_value>  (152) 
0.1

>  <document_year>  (152) 
1988

>  <target_pref_name>  (152) 
Dihydrofolate reductase

>  <assay_chembl_id>  (152) 
CHEMBL669446

>  <standard_relation>  (152) 
=

>  <assay_description>  (152) 
Inhibitory activity against dihydrofolate reductase (DHFR) obtained from human WIL2 cells

>  <published_relation>  (152) 
=

>  <standard_value>  (152) 
100

>  <qudt_units>  (152) 
http://www.openphacts.org/units/Nanomolar

>  <target_tax_id>  (152) 
9606

>  <bao_label>  (152) 
cell-based format

>  <published_units>  (152) 
uM

>  <pchembl_value>  (152) 
7

>  <published_type>  (152) 
I50

>  <activity_comment>  (152) 
None

$$$$

     RDKit          

 31 33  0  0  0  0  0  0  0  0999 V2000
    0.0000    0.0000    0.0000 C   0  0  0  0  0  0  0  0  0  0  0  0
    0.0000    0.0000    0.0000 C   0  0  0  0  0  0  0  0  0  0  0  0
    0.0000    0.0000    0.0000 C   0  0  0  0  0  0  0  0  0  0  0  0
    0.0000    0.0000    0.0000 S   0  0  0  0  0  0  0  0  0  0  0  0
    0.0000    0.0000    0.0000 C   0  0  0  0  0  0  0  0  0  0  0  0
    0.0000    0.0000    0.0000 C   0  0  0  0  0  0  0  0  0  0  0  0
    0.0000    0.0000    0.0000 C   0  0  0  0  0  0  0  0  0  0  0  0
    0.0000    0.0000    0.0000 C   0  0  0  0  0  0  0  0  0  0  0  0
    0.0000    0.0000    0.0000 C   0  0  0  0  0  0  0  0  0  0  0  0
    0.0000    0.0000    0.0000 C   0  0  0  0  0  0  0  0  0  0  0  0
    0.0000    0.0000    0.0000 C   0  0  0  0  0  0  0  0  0  0  0  0
    0.0000    0.0000    0.0000 O   0  0  0  0  0  0  0  0  0  0  0  0
    0.0000    0.0000    0.0000 N   0  0  0  0  0  0  0  0  0  0  0  0
    0.0000    0.0000    0.0000 C   0  0  0  0  0  0  0  0  0  0  0  0
    0.0000    0.0000    0.0000 C   0  0  0  0  0  0  0  0  0  0  0  0
    0.0000    0.0000    0.0000 C   0  0  0  0  0  0  0  0  0  0  0  0
    0.0000    0.0000    0.0000 C   0  0  0  0  0  0  0  0  0  0  0  0
    0.0000    0.0000    0.0000 O   0  0  0  0  0  0  0  0  0  0  0  0
    0.0000    0.0000    0.0000 O   0  0  0  0  0  0  0  0  0  0  0  0
    0.0000    0.0000    0.0000 C   0  0  0  0  0  0  0  0  0  0  0  0
    0.0000    0.0000    0.0000 O   0  0  0  0  0  0  0  0  0  0  0  0
    0.0000    0.0000    0.0000 O   0  0  0  0  0  0  0  0  0  0  0  0
    0.0000    0.0000    0.0000 C   0  0  0  0  0  0  0  0  0  0  0  0
    0.0000    0.0000    0.0000 C   0  0  0  0  0  0  0  0  0  0  0  0
    0.0000    0.0000    0.0000 N   0  0  0  0  0  0  0  0  0  0  0  0
    0.0000    0.0000    0.0000 N   0  0  0  0  0  0  0  0  0  0  0  0
    0.0000    0.0000    0.0000 C   0  0  0  0  0  0  0  0  0  0  0  0
    0.0000    0.0000    0.0000 N   0  0  0  0  0  0  0  0  0  0  0  0
    0.0000    0.0000    0.0000 N   0  0  0  0  0  0  0  0  0  0  0  0
    0.0000    0.0000    0.0000 C   0  0  0  0  0  0  0  0  0  0  0  0
    0.0000    0.0000    0.0000 O   0  0  0  0  0  0  0  0  0  0  0  0
  1  2  1  0
  2  3  2  0
  3  4  1  0
  4  5  1  0
  5  6  2  0
  6  7  1  0
  7  8  2  0
  8  9  1  0
  9 10  2  0
  8 11  1  0
 11 12  2  0
 11 13  1  0
 13 14  1  0
 14 15  1  0
 15 16  1  0
 16 17  1  0
 17 18  2  0
 17 19  1  0
 14 20  1  0
 20 21  2  0
 20 22  1  0
  3 23  1  0
 23 24  1  0
 24 25  1  0
 24 26  1  0
 26 27  2  0
 27 28  1  0
 27 29  1  0
 29 30  1  0
 30 31  2  0
 25  2  1  0
 10  5  1  0
 30 23  1  0
M  END
>  <pIC50>  (153) 
6.285

>  <ChEMBL_ID>  (153) 
CHEMBL336487

>  <document_journal>  (153) 
J. Med. Chem.

>  <bao_endpoint>  (153) 
BAO_0000190

>  <potential_duplicate>  (153) 
False

>  <uo_units>  (153) 
UO_0000065

>  <canonical_smiles>  (153) 
CC1=C(Sc2ccc(cc2)C(=O)NC(CCC(=O)O)C(=O)O)C3C(N1)N=C(N)NC3=O

>  <parent_molecule_chembl_id>  (153) 
CHEMBL336487

>  <assay_type>  (153) 
B

>  <src_id>  (153) 
1

>  <ligand_efficiency>  (153) 
{u'le': u'0.25', u'bei': u'12.64', u'sei': u'2.71', u'lle': u'5.84'}

>  <standard_flag>  (153) 
True

>  <molecule_chembl_id>  (153) 
CHEMBL336487

>  <target_organism>  (153) 
Homo sapiens

>  <standard_units>  (153) 
nM

>  <record_id>  (153) 
269800

>  <document_chembl_id>  (153) 
CHEMBL1128698

>  <bao_format>  (153) 
BAO_0000357

>  <data_validity_description>  (153) 
None

>  <activity_id>  (153) 
802437

>  <standard_type>  (153) 
IC50

>  <target_chembl_id>  (153) 
CHEMBL202

>  <data_validity_comment>  (153) 
None

>  <published_value>  (153) 
2.2

>  <document_year>  (153) 
1995

>  <target_pref_name>  (153) 
Dihydrofolate reductase

>  <assay_chembl_id>  (153) 
CHEMBL668438

>  <standard_relation>  (153) 
=

>  <assay_description>  (153) 
Inhibitory activity against dihydro folate reductase from human recombinant sources

>  <published_relation>  (153) 
=

>  <standard_value>  (153) 
2200

>  <qudt_units>  (153) 
http://www.openphacts.org/units/Nanomolar

>  <target_tax_id>  (153) 
9606

>  <bao_label>  (153) 
single protein format

>  <published_units>  (153) 
uM

>  <pchembl_value>  (153) 
5.66

>  <published_type>  (153) 
IC50

>  <activity_comment>  (153) 
None

$$$$

     RDKit          

 25 27  0  0  0  0  0  0  0  0999 V2000
    0.0000    0.0000    0.0000 C   0  0  0  0  0  0  0  0  0  0  0  0
    0.0000    0.0000    0.0000 O   0  0  0  0  0  0  0  0  0  0  0  0
    0.0000    0.0000    0.0000 C   0  0  0  0  0  0  0  0  0  0  0  0
    0.0000    0.0000    0.0000 C   0  0  0  0  0  0  0  0  0  0  0  0
    0.0000    0.0000    0.0000 C   0  0  0  0  0  0  0  0  0  0  0  0
    0.0000    0.0000    0.0000 C   0  0  0  0  0  0  0  0  0  0  0  0
    0.0000    0.0000    0.0000 C   0  0  0  0  0  0  0  0  0  0  0  0
    0.0000    0.0000    0.0000 C   0  0  0  0  0  0  0  0  0  0  0  0
    0.0000    0.0000    0.0000 N   0  0  0  0  0  0  0  0  0  0  0  0
    0.0000    0.0000    0.0000 C   0  0  0  0  0  0  0  0  0  0  0  0
    0.0000    0.0000    0.0000 N   0  0  0  0  0  0  0  0  0  0  0  0
    0.0000    0.0000    0.0000 N   0  0  0  0  0  0  0  0  0  0  0  0
    0.0000    0.0000    0.0000 C   0  0  0  0  0  0  0  0  0  0  0  0
    0.0000    0.0000    0.0000 N   0  0  0  0  0  0  0  0  0  0  0  0
    0.0000    0.0000    0.0000 C   0  0  0  0  0  0  0  0  0  0  0  0
    0.0000    0.0000    0.0000 C   0  0  0  0  0  0  0  0  0  0  0  0
    0.0000    0.0000    0.0000 C   0  0  0  0  0  0  0  0  0  0  0  0
    0.0000    0.0000    0.0000 C   0  0  0  0  0  0  0  0  0  0  0  0
    0.0000    0.0000    0.0000 C   0  0  0  0  0  0  0  0  0  0  0  0
    0.0000    0.0000    0.0000 C   0  0  0  0  0  0  0  0  0  0  0  0
    0.0000    0.0000    0.0000 N   0  0  0  0  0  0  0  0  0  0  0  0
    0.0000    0.0000    0.0000 C   0  0  0  0  0  0  0  0  0  0  0  0
    0.0000    0.0000    0.0000 N   0  0  0  0  0  0  0  0  0  0  0  0
    0.0000    0.0000    0.0000 C   0  0  0  0  0  0  0  0  0  0  0  0
    0.0000    0.0000    0.0000 C   0  0  0  0  0  0  0  0  0  0  0  0
  1  2  1  0
  2  3  1  0
  3  4  2  0
  4  5  1  0
  5  6  1  0
  6  7  1  0
  7  8  2  0
  8  9  1  0
  9 10  2  0
 10 11  1  0
 10 12  1  0
 12 13  2  0
 13 14  1  0
  5 15  2  0
 15 16  1  0
 16 17  2  0
 17 18  1  0
 18 19  2  0
 19 20  1  0
 19 21  1  0
 21 22  2  0
 17 23  1  0
 23 24  1  0
 23 25  1  0
 22  3  1  0
 13  7  1  0
 22 16  1  0
M  END
>  <pIC50>  (154) 
6.85

>  <ChEMBL_ID>  (154) 
CHEMBL58366

>  <document_journal>  (154) 
J. Med. Chem.

>  <bao_endpoint>  (154) 
BAO_0000190

>  <potential_duplicate>  (154) 
False

>  <uo_units>  (154) 
UO_0000065

>  <canonical_smiles>  (154) 
COc1cc(Cc2cnc(N)nc2N)cc3c(cc(C)nc13)N(C)C

>  <parent_molecule_chembl_id>  (154) 
CHEMBL58366

>  <assay_type>  (154) 
B

>  <src_id>  (154) 
1

>  <ligand_efficiency>  (154) 
{u'le': u'0.37', u'bei': u'20.25', u'sei': u'6.64', u'lle': u'4.64'}

>  <standard_flag>  (154) 
True

>  <molecule_chembl_id>  (154) 
CHEMBL58366

>  <target_organism>  (154) 
Homo sapiens

>  <standard_units>  (154) 
nM

>  <record_id>  (154) 
100253

>  <document_chembl_id>  (154) 
CHEMBL1124567

>  <bao_format>  (154) 
BAO_0000357

>  <data_validity_description>  (154) 
None

>  <activity_id>  (154) 
816707

>  <standard_type>  (154) 
IC50

>  <target_chembl_id>  (154) 
CHEMBL202

>  <data_validity_comment>  (154) 
None

>  <published_value>  (154) 
1.4E-7

>  <document_year>  (154) 
1989

>  <target_pref_name>  (154) 
Dihydrofolate reductase

>  <assay_chembl_id>  (154) 
CHEMBL667603

>  <standard_relation>  (154) 
=

>  <assay_description>  (154) 
Inhibitory activity against Dihydrofolate reductase in Neisseria gonorrhoeae

>  <published_relation>  (154) 
=

>  <standard_value>  (154) 
140

>  <qudt_units>  (154) 
http://www.openphacts.org/units/Nanomolar

>  <target_tax_id>  (154) 
9606

>  <bao_label>  (154) 
single protein format

>  <published_units>  (154) 
M

>  <pchembl_value>  (154) 
6.85

>  <published_type>  (154) 
I50

>  <activity_comment>  (154) 
None

$$$$

     RDKit          

 26 29  0  0  0  0  0  0  0  0999 V2000
    0.0000    0.0000    0.0000 C   0  0  0  0  0  0  0  0  0  0  0  0
    0.0000    0.0000    0.0000 C   0  0  0  0  0  0  0  0  0  0  0  0
    0.0000    0.0000    0.0000 C   0  0  0  0  0  0  0  0  0  0  0  0
    0.0000    0.0000    0.0000 C   0  0  0  0  0  0  0  0  0  0  0  0
    0.0000    0.0000    0.0000 N   0  0  0  0  0  0  0  0  0  0  0  0
    0.0000    0.0000    0.0000 C   0  0  0  0  0  0  0  0  0  0  0  0
    0.0000    0.0000    0.0000 C   0  0  0  0  0  0  0  0  0  0  0  0
    0.0000    0.0000    0.0000 C   0  0  0  0  0  0  0  0  0  0  0  0
    0.0000    0.0000    0.0000 C   0  0  0  0  0  0  0  0  0  0  0  0
    0.0000    0.0000    0.0000 C   0  0  0  0  0  0  0  0  0  0  0  0
    0.0000    0.0000    0.0000 C   0  0  0  0  0  0  0  0  0  0  0  0
    0.0000    0.0000    0.0000 N   0  0  0  0  0  0  0  0  0  0  0  0
    0.0000    0.0000    0.0000 C   0  0  0  0  0  0  0  0  0  0  0  0
    0.0000    0.0000    0.0000 N   0  0  0  0  0  0  0  0  0  0  0  0
    0.0000    0.0000    0.0000 N   0  0  0  0  0  0  0  0  0  0  0  0
    0.0000    0.0000    0.0000 C   0  0  0  0  0  0  0  0  0  0  0  0
    0.0000    0.0000    0.0000 N   0  0  0  0  0  0  0  0  0  0  0  0
    0.0000    0.0000    0.0000 C   0  0  0  0  0  0  0  0  0  0  0  0
    0.0000    0.0000    0.0000 C   0  0  0  0  0  0  0  0  0  0  0  0
    0.0000    0.0000    0.0000 C   0  0  0  0  0  0  0  0  0  0  0  0
    0.0000    0.0000    0.0000 N   0  0  0  0  0  0  0  0  0  0  0  0
    0.0000    0.0000    0.0000 C   0  0  0  0  0  0  0  0  0  0  0  0
    0.0000    0.0000    0.0000 C   0  0  0  0  0  0  0  0  0  0  0  0
    0.0000    0.0000    0.0000 O   0  0  0  0  0  0  0  0  0  0  0  0
    0.0000    0.0000    0.0000 C   0  0  0  0  0  0  0  0  0  0  0  0
    0.0000    0.0000    0.0000 C   0  0  0  0  0  0  0  0  0  0  0  0
  1  2  1  0
  2  3  2  0
  3  4  1  0
  4  5  2  0
  5  6  1  0
  6  7  2  0
  7  8  1  0
  8  9  1  0
  9 10  1  0
 10 11  2  0
 11 12  1  0
 12 13  2  0
 13 14  1  0
 13 15  1  0
 15 16  2  0
 16 17  1  0
  8 18  2  0
 18 19  1  0
 19 20  2  0
  4 21  1  0
 21 22  1  0
 22 23  1  0
 23 24  1  0
 24 25  1  0
 25 26  1  0
 20  2  1  0
 20  6  1  0
 16 10  1  0
 26 21  1  0
M  END
>  <pIC50>  (155) 
6.2

>  <ChEMBL_ID>  (155) 
CHEMBL56325

>  <document_journal>  (155) 
J. Med. Chem.

>  <bao_endpoint>  (155) 
BAO_0000190

>  <potential_duplicate>  (155) 
False

>  <uo_units>  (155) 
UO_0000065

>  <canonical_smiles>  (155) 
Cc1cc(nc2cc(Cc3cnc(N)nc3N)ccc12)N4CCOCC4

>  <parent_molecule_chembl_id>  (155) 
CHEMBL56325

>  <assay_type>  (155) 
B

>  <src_id>  (155) 
1

>  <ligand_efficiency>  (155) 
{u'le': u'0.33', u'bei': u'17.69', u'sei': u'6.01', u'lle': u'3.55'}

>  <standard_flag>  (155) 
True

>  <molecule_chembl_id>  (155) 
CHEMBL56325

>  <target_organism>  (155) 
Homo sapiens

>  <standard_units>  (155) 
nM

>  <record_id>  (155) 
100241

>  <document_chembl_id>  (155) 
CHEMBL1124567

>  <bao_format>  (155) 
BAO_0000357

>  <data_validity_description>  (155) 
None

>  <activity_id>  (155) 
817907

>  <standard_type>  (155) 
IC50

>  <target_chembl_id>  (155) 
CHEMBL202

>  <data_validity_comment>  (155) 
None

>  <published_value>  (155) 
6.3E-7

>  <document_year>  (155) 
1989

>  <target_pref_name>  (155) 
Dihydrofolate reductase

>  <assay_chembl_id>  (155) 
CHEMBL667603

>  <standard_relation>  (155) 
=

>  <assay_description>  (155) 
Inhibitory activity against Dihydrofolate reductase in Neisseria gonorrhoeae

>  <published_relation>  (155) 
=

>  <standard_value>  (155) 
630

>  <qudt_units>  (155) 
http://www.openphacts.org/units/Nanomolar

>  <target_tax_id>  (155) 
9606

>  <bao_label>  (155) 
single protein format

>  <published_units>  (155) 
M

>  <pchembl_value>  (155) 
6.2

>  <published_type>  (155) 
I50

>  <activity_comment>  (155) 
None

$$$$

     RDKit          

 22 24  0  0  0  0  0  0  0  0999 V2000
    0.0000    0.0000    0.0000 C   0  0  0  0  0  0  0  0  0  0  0  0
    0.0000    0.0000    0.0000 O   0  0  0  0  0  0  0  0  0  0  0  0
    0.0000    0.0000    0.0000 C   0  0  0  0  0  0  0  0  0  0  0  0
    0.0000    0.0000    0.0000 C   0  0  0  0  0  0  0  0  0  0  0  0
    0.0000    0.0000    0.0000 C   0  0  0  0  0  0  0  0  0  0  0  0
    0.0000    0.0000    0.0000 C   0  0  0  0  0  0  0  0  0  0  0  0
    0.0000    0.0000    0.0000 C   0  0  0  0  0  0  0  0  0  0  0  0
    0.0000    0.0000    0.0000 C   0  0  0  0  0  0  0  0  0  0  0  0
    0.0000    0.0000    0.0000 C   0  0  0  0  0  0  0  0  0  0  0  0
    0.0000    0.0000    0.0000 C   0  0  0  0  0  0  0  0  0  0  0  0
    0.0000    0.0000    0.0000 C   0  0  0  0  0  0  0  0  0  0  0  0
    0.0000    0.0000    0.0000 C   0  0  0  0  0  0  0  0  0  0  0  0
    0.0000    0.0000    0.0000 C   0  0  0  0  0  0  0  0  0  0  0  0
    0.0000    0.0000    0.0000 N   0  0  0  0  0  0  0  0  0  0  0  0
    0.0000    0.0000    0.0000 C   0  0  0  0  0  0  0  0  0  0  0  0
    0.0000    0.0000    0.0000 N   0  0  0  0  0  0  0  0  0  0  0  0
    0.0000    0.0000    0.0000 N   0  0  0  0  0  0  0  0  0  0  0  0
    0.0000    0.0000    0.0000 C   0  0  0  0  0  0  0  0  0  0  0  0
    0.0000    0.0000    0.0000 N   0  0  0  0  0  0  0  0  0  0  0  0
    0.0000    0.0000    0.0000 C   0  0  0  0  0  0  0  0  0  0  0  0
    0.0000    0.0000    0.0000 C   0  0  0  0  0  0  0  0  0  0  0  0
    0.0000    0.0000    0.0000 N   0  0  0  0  0  0  0  0  0  0  0  0
  1  2  1  0
  2  3  1  0
  3  4  2  0
  4  5  1  0
  5  6  1  0
  5  7  2  0
  7  8  1  0
  8  9  2  0
  9 10  1  0
 10 11  1  0
 11 12  1  0
 12 13  2  0
 13 14  1  0
 14 15  2  0
 15 16  1  0
 15 17  1  0
 17 18  2  0
 18 19  1  0
 10 20  2  0
 20 21  1  0
 21 22  2  0
 22  3  1  0
 21  7  1  0
 18 12  1  0
M  END
>  <pIC50>  (156) 
6.52

>  <ChEMBL_ID>  (156) 
CHEMBL294377

>  <document_journal>  (156) 
J. Med. Chem.

>  <bao_endpoint>  (156) 
BAO_0000190

>  <potential_duplicate>  (156) 
False

>  <uo_units>  (156) 
UO_0000065

>  <canonical_smiles>  (156) 
COc1cc(C)c2ccc(Cc3cnc(N)nc3N)cc2n1

>  <parent_molecule_chembl_id>  (156) 
CHEMBL294377

>  <assay_type>  (156) 
B

>  <src_id>  (156) 
1

>  <ligand_efficiency>  (156) 
{u'le': u'0.4', u'bei': u'22.09', u'sei': u'6.53', u'lle': u'3.73'}

>  <standard_flag>  (156) 
True

>  <molecule_chembl_id>  (156) 
CHEMBL294377

>  <target_organism>  (156) 
Homo sapiens

>  <standard_units>  (156) 
nM

>  <record_id>  (156) 
100240

>  <document_chembl_id>  (156) 
CHEMBL1124567

>  <bao_format>  (156) 
BAO_0000357

>  <data_validity_description>  (156) 
None

>  <activity_id>  (156) 
819094

>  <standard_type>  (156) 
IC50

>  <target_chembl_id>  (156) 
CHEMBL202

>  <data_validity_comment>  (156) 
None

>  <published_value>  (156) 
3E-7

>  <document_year>  (156) 
1989

>  <target_pref_name>  (156) 
Dihydrofolate reductase

>  <assay_chembl_id>  (156) 
CHEMBL667603

>  <standard_relation>  (156) 
=

>  <assay_description>  (156) 
Inhibitory activity against Dihydrofolate reductase in Neisseria gonorrhoeae

>  <published_relation>  (156) 
=

>  <standard_value>  (156) 
300

>  <qudt_units>  (156) 
http://www.openphacts.org/units/Nanomolar

>  <target_tax_id>  (156) 
9606

>  <bao_label>  (156) 
single protein format

>  <published_units>  (156) 
M

>  <pchembl_value>  (156) 
6.52

>  <published_type>  (156) 
I50

>  <activity_comment>  (156) 
None

$$$$

     RDKit          

 23 25  0  0  0  0  0  0  0  0999 V2000
    0.0000    0.0000    0.0000 C   0  0  0  0  0  0  0  0  0  0  0  0
    0.0000    0.0000    0.0000 O   0  0  0  0  0  0  0  0  0  0  0  0
    0.0000    0.0000    0.0000 C   0  0  0  0  0  0  0  0  0  0  0  0
    0.0000    0.0000    0.0000 C   0  0  0  0  0  0  0  0  0  0  0  0
    0.0000    0.0000    0.0000 C   0  0  0  0  0  0  0  0  0  0  0  0
    0.0000    0.0000    0.0000 C   0  0  0  0  0  0  0  0  0  0  0  0
    0.0000    0.0000    0.0000 C   0  0  0  0  0  0  0  0  0  0  0  0
    0.0000    0.0000    0.0000 C   0  0  0  0  0  0  0  0  0  0  0  0
    0.0000    0.0000    0.0000 C   0  0  0  0  0  0  0  0  0  0  0  0
    0.0000    0.0000    0.0000 C   0  0  0  0  0  0  0  0  0  0  0  0
    0.0000    0.0000    0.0000 C   0  0  0  0  0  0  0  0  0  0  0  0
    0.0000    0.0000    0.0000 C   0  0  0  0  0  0  0  0  0  0  0  0
    0.0000    0.0000    0.0000 N   0  0  0  0  0  0  0  0  0  0  0  0
    0.0000    0.0000    0.0000 C   0  0  0  0  0  0  0  0  0  0  0  0
    0.0000    0.0000    0.0000 N   0  0  0  0  0  0  0  0  0  0  0  0
    0.0000    0.0000    0.0000 N   0  0  0  0  0  0  0  0  0  0  0  0
    0.0000    0.0000    0.0000 C   0  0  0  0  0  0  0  0  0  0  0  0
    0.0000    0.0000    0.0000 N   0  0  0  0  0  0  0  0  0  0  0  0
    0.0000    0.0000    0.0000 C   0  0  0  0  0  0  0  0  0  0  0  0
    0.0000    0.0000    0.0000 C   0  0  0  0  0  0  0  0  0  0  0  0
    0.0000    0.0000    0.0000 C   0  0  0  0  0  0  0  0  0  0  0  0
    0.0000    0.0000    0.0000 C   0  0  0  0  0  0  0  0  0  0  0  0
    0.0000    0.0000    0.0000 N   0  0  0  0  0  0  0  0  0  0  0  0
  1  2  1  0
  2  3  1  0
  3  4  2  0
  4  5  1  0
  5  6  1  0
  5  7  2  0
  7  8  1  0
  8  9  2  0
  9 10  1  0
 10 11  1  0
 11 12  2  0
 12 13  1  0
 13 14  2  0
 14 15  1  0
 14 16  1  0
 16 17  2  0
 17 18  1  0
  9 19  1  0
 19 20  2  0
 20 21  1  0
 20 22  1  0
 22 23  2  0
 23  3  1  0
 22  7  1  0
 17 11  1  0
M  END
>  <pIC50>  (157) 
5.75

>  <ChEMBL_ID>  (157) 
CHEMBL60486

>  <document_journal>  (157) 
J. Med. Chem.

>  <bao_endpoint>  (157) 
BAO_0000190

>  <potential_duplicate>  (157) 
False

>  <uo_units>  (157) 
UO_0000065

>  <canonical_smiles>  (157) 
COc1cc(C)c2cc(Cc3cnc(N)nc3N)cc(C)c2n1

>  <parent_molecule_chembl_id>  (157) 
CHEMBL60486

>  <assay_type>  (157) 
B

>  <src_id>  (157) 
1

>  <ligand_efficiency>  (157) 
{u'le': u'0.34', u'bei': u'18.57', u'sei': u'5.75', u'lle': u'2.47'}

>  <standard_flag>  (157) 
True

>  <molecule_chembl_id>  (157) 
CHEMBL60486

>  <target_organism>  (157) 
Homo sapiens

>  <standard_units>  (157) 
nM

>  <record_id>  (157) 
100242

>  <document_chembl_id>  (157) 
CHEMBL1124567

>  <bao_format>  (157) 
BAO_0000357

>  <data_validity_description>  (157) 
None

>  <activity_id>  (157) 
824888

>  <standard_type>  (157) 
IC50

>  <target_chembl_id>  (157) 
CHEMBL202

>  <data_validity_comment>  (157) 
None

>  <published_value>  (157) 
0.0000018

>  <document_year>  (157) 
1989

>  <target_pref_name>  (157) 
Dihydrofolate reductase

>  <assay_chembl_id>  (157) 
CHEMBL667603

>  <standard_relation>  (157) 
=

>  <assay_description>  (157) 
Inhibitory activity against Dihydrofolate reductase in Neisseria gonorrhoeae

>  <published_relation>  (157) 
=

>  <standard_value>  (157) 
1800

>  <qudt_units>  (157) 
http://www.openphacts.org/units/Nanomolar

>  <target_tax_id>  (157) 
9606

>  <bao_label>  (157) 
single protein format

>  <published_units>  (157) 
M

>  <pchembl_value>  (157) 
5.75

>  <published_type>  (157) 
I50

>  <activity_comment>  (157) 
None

$$$$

     RDKit          

 24 26  0  0  0  0  0  0  0  0999 V2000
    0.0000    0.0000    0.0000 C   0  0  0  0  0  0  0  0  0  0  0  0
    0.0000    0.0000    0.0000 O   0  0  0  0  0  0  0  0  0  0  0  0
    0.0000    0.0000    0.0000 C   0  0  0  0  0  0  0  0  0  0  0  0
    0.0000    0.0000    0.0000 C   0  0  0  0  0  0  0  0  0  0  0  0
    0.0000    0.0000    0.0000 C   0  0  0  0  0  0  0  0  0  0  0  0
    0.0000    0.0000    0.0000 C   0  0  0  0  0  0  0  0  0  0  0  0
    0.0000    0.0000    0.0000 N   0  0  0  0  0  0  0  0  0  0  0  0
    0.0000    0.0000    0.0000 C   0  0  0  0  0  0  0  0  0  0  0  0
    0.0000    0.0000    0.0000 C   0  0  0  0  0  0  0  0  0  0  0  0
    0.0000    0.0000    0.0000 O   0  0  0  0  0  0  0  0  0  0  0  0
    0.0000    0.0000    0.0000 C   0  0  0  0  0  0  0  0  0  0  0  0
    0.0000    0.0000    0.0000 C   0  0  0  0  0  0  0  0  0  0  0  0
    0.0000    0.0000    0.0000 C   0  0  0  0  0  0  0  0  0  0  0  0
    0.0000    0.0000    0.0000 C   0  0  0  0  0  0  0  0  0  0  0  0
    0.0000    0.0000    0.0000 C   0  0  0  0  0  0  0  0  0  0  0  0
    0.0000    0.0000    0.0000 C   0  0  0  0  0  0  0  0  0  0  0  0
    0.0000    0.0000    0.0000 N   0  0  0  0  0  0  0  0  0  0  0  0
    0.0000    0.0000    0.0000 C   0  0  0  0  0  0  0  0  0  0  0  0
    0.0000    0.0000    0.0000 N   0  0  0  0  0  0  0  0  0  0  0  0
    0.0000    0.0000    0.0000 N   0  0  0  0  0  0  0  0  0  0  0  0
    0.0000    0.0000    0.0000 C   0  0  0  0  0  0  0  0  0  0  0  0
    0.0000    0.0000    0.0000 N   0  0  0  0  0  0  0  0  0  0  0  0
    0.0000    0.0000    0.0000 C   0  0  0  0  0  0  0  0  0  0  0  0
    0.0000    0.0000    0.0000 C   0  0  0  0  0  0  0  0  0  0  0  0
  1  2  1  0
  2  3  1  0
  3  4  2  0
  4  5  1  0
  5  6  1  0
  5  7  2  0
  7  8  1  0
  8  9  2  0
  9 10  1  0
 10 11  1  0
  9 12  1  0
 12 13  2  0
 13 14  1  0
 14 15  1  0
 15 16  2  0
 16 17  1  0
 17 18  2  0
 18 19  1  0
 18 20  1  0
 20 21  2  0
 21 22  1  0
 13 23  1  0
 23 24  2  0
 24  3  1  0
 24  8  1  0
 21 15  1  0
M  END
>  <pIC50>  (158) 
6.27

>  <ChEMBL_ID>  (158) 
CHEMBL56719

>  <document_journal>  (158) 
J. Med. Chem.

>  <bao_endpoint>  (158) 
BAO_0000190

>  <potential_duplicate>  (158) 
False

>  <uo_units>  (158) 
UO_0000065

>  <canonical_smiles>  (158) 
COc1cc(C)nc2c(OC)cc(Cc3cnc(N)nc3N)cc12

>  <parent_molecule_chembl_id>  (158) 
CHEMBL56719

>  <assay_type>  (158) 
B

>  <src_id>  (158) 
1

>  <ligand_efficiency>  (158) 
{u'le': u'0.36', u'bei': u'19.26', u'sei': u'5.74', u'lle': u'4.24'}

>  <standard_flag>  (158) 
True

>  <molecule_chembl_id>  (158) 
CHEMBL56719

>  <target_organism>  (158) 
Homo sapiens

>  <standard_units>  (158) 
nM

>  <record_id>  (158) 
100244

>  <document_chembl_id>  (158) 
CHEMBL1124567

>  <bao_format>  (158) 
BAO_0000357

>  <data_validity_description>  (158) 
None

>  <activity_id>  (158) 
826159

>  <standard_type>  (158) 
IC50

>  <target_chembl_id>  (158) 
CHEMBL202

>  <data_validity_comment>  (158) 
None

>  <published_value>  (158) 
5.4E-7

>  <document_year>  (158) 
1989

>  <target_pref_name>  (158) 
Dihydrofolate reductase

>  <assay_chembl_id>  (158) 
CHEMBL667603

>  <standard_relation>  (158) 
=

>  <assay_description>  (158) 
Inhibitory activity against Dihydrofolate reductase in Neisseria gonorrhoeae

>  <published_relation>  (158) 
=

>  <standard_value>  (158) 
540

>  <qudt_units>  (158) 
http://www.openphacts.org/units/Nanomolar

>  <target_tax_id>  (158) 
9606

>  <bao_label>  (158) 
single protein format

>  <published_units>  (158) 
M

>  <pchembl_value>  (158) 
6.27

>  <published_type>  (158) 
I50

>  <activity_comment>  (158) 
None

$$$$

     RDKit          

 70 72  0  0  0  0  0  0  0  0999 V2000
    0.0000    0.0000    0.0000 O   0  0  0  0  0  0  0  0  0  0  0  0
    0.0000    0.0000    0.0000 C   0  0  0  0  0  0  0  0  0  0  0  0
    0.0000    0.0000    0.0000 N   0  0  0  0  0  0  0  0  0  0  0  0
    0.0000    0.0000    0.0000 C   0  0  0  0  0  0  0  0  0  0  0  0
    0.0000    0.0000    0.0000 C   0  0  0  0  0  0  0  0  0  0  0  0
    0.0000    0.0000    0.0000 C   0  0  0  0  0  0  0  0  0  0  0  0
    0.0000    0.0000    0.0000 C   0  0  0  0  0  0  0  0  0  0  0  0
    0.0000    0.0000    0.0000 C   0  0  0  0  0  0  0  0  0  0  0  0
    0.0000    0.0000    0.0000 N   0  0  0  0  0  0  0  0  0  0  0  0
    0.0000    0.0000    0.0000 C   0  0  0  0  0  0  0  0  0  0  0  0
    0.0000    0.0000    0.0000 C   0  0  0  0  0  0  0  0  0  0  0  0
    0.0000    0.0000    0.0000 C   0  0  0  0  0  0  0  0  0  0  0  0
    0.0000    0.0000    0.0000 N   0  0  0  0  0  0  0  0  0  0  0  0
    0.0000    0.0000    0.0000 N   0  0  0  0  0  0  0  0  0  0  0  0
    0.0000    0.0000    0.0000 C   0  0  0  0  0  0  0  0  0  0  0  0
    0.0000    0.0000    0.0000 C   0  0  0  0  0  0  0  0  0  0  0  0
    0.0000    0.0000    0.0000 C   0  0  0  0  0  0  0  0  0  0  0  0
    0.0000    0.0000    0.0000 C   0  0  0  0  0  0  0  0  0  0  0  0
    0.0000    0.0000    0.0000 C   0  0  0  0  0  0  0  0  0  0  0  0
    0.0000    0.0000    0.0000 C   0  0  0  0  0  0  0  0  0  0  0  0
    0.0000    0.0000    0.0000 C   0  0  0  0  0  0  0  0  0  0  0  0
    0.0000    0.0000    0.0000 C   0  0  0  0  0  0  0  0  0  0  0  0
    0.0000    0.0000    0.0000 C   0  0  0  0  0  0  0  0  0  0  0  0
    0.0000    0.0000    0.0000 O   0  0  0  0  0  0  0  0  0  0  0  0
    0.0000    0.0000    0.0000 N   0  0  0  0  0  0  0  0  0  0  0  0
    0.0000    0.0000    0.0000 C   0  0  0  0  0  0  0  0  0  0  0  0
    0.0000    0.0000    0.0000 C   0  0  0  0  0  0  0  0  0  0  0  0
    0.0000    0.0000    0.0000 C   0  0  0  0  0  0  0  0  0  0  0  0
    0.0000    0.0000    0.0000 C   0  0  0  0  0  0  0  0  0  0  0  0
    0.0000    0.0000    0.0000 O   0  0  0  0  0  0  0  0  0  0  0  0
    0.0000    0.0000    0.0000 N   0  0  0  0  0  0  0  0  0  0  0  0
    0.0000    0.0000    0.0000 C   0  0  0  0  0  0  0  0  0  0  0  0
    0.0000    0.0000    0.0000 C   0  0  0  0  0  0  0  0  0  0  0  0
    0.0000    0.0000    0.0000 O   0  0  0  0  0  0  0  0  0  0  0  0
    0.0000    0.0000    0.0000 O   0  0  0  0  0  0  0  0  0  0  0  0
    0.0000    0.0000    0.0000 C   0  0  0  0  0  0  0  0  0  0  0  0
    0.0000    0.0000    0.0000 C   0  0  0  0  0  0  0  0  0  0  0  0
    0.0000    0.0000    0.0000 C   0  0  0  0  0  0  0  0  0  0  0  0
    0.0000    0.0000    0.0000 O   0  0  0  0  0  0  0  0  0  0  0  0
    0.0000    0.0000    0.0000 O   0  0  0  0  0  0  0  0  0  0  0  0
    0.0000    0.0000    0.0000 C   0  0  0  0  0  0  0  0  0  0  0  0
    0.0000    0.0000    0.0000 O   0  0  0  0  0  0  0  0  0  0  0  0
    0.0000    0.0000    0.0000 N   0  0  0  0  0  0  0  0  0  0  0  0
    0.0000    0.0000    0.0000 C   0  0  0  0  0  0  0  0  0  0  0  0
    0.0000    0.0000    0.0000 C   0  0  0  0  0  0  0  0  0  0  0  0
    0.0000    0.0000    0.0000 C   0  0  0  0  0  0  0  0  0  0  0  0
    0.0000    0.0000    0.0000 C   0  0  0  0  0  0  0  0  0  0  0  0
    0.0000    0.0000    0.0000 O   0  0  0  0  0  0  0  0  0  0  0  0
    0.0000    0.0000    0.0000 O   0  0  0  0  0  0  0  0  0  0  0  0
    0.0000    0.0000    0.0000 C   0  0  0  0  0  0  0  0  0  0  0  0
    0.0000    0.0000    0.0000 O   0  0  0  0  0  0  0  0  0  0  0  0
    0.0000    0.0000    0.0000 N   0  0  0  0  0  0  0  0  0  0  0  0
    0.0000    0.0000    0.0000 C   0  0  0  0  0  0  0  0  0  0  0  0
    0.0000    0.0000    0.0000 C   0  0  0  0  0  0  0  0  0  0  0  0
    0.0000    0.0000    0.0000 C   0  0  0  0  0  0  0  0  0  0  0  0
    0.0000    0.0000    0.0000 C   0  0  0  0  0  0  0  0  0  0  0  0
    0.0000    0.0000    0.0000 O   0  0  0  0  0  0  0  0  0  0  0  0
    0.0000    0.0000    0.0000 O   0  0  0  0  0  0  0  0  0  0  0  0
    0.0000    0.0000    0.0000 C   0  0  0  0  0  0  0  0  0  0  0  0
    0.0000    0.0000    0.0000 O   0  0  0  0  0  0  0  0  0  0  0  0
    0.0000    0.0000    0.0000 N   0  0  0  0  0  0  0  0  0  0  0  0
    0.0000    0.0000    0.0000 C   0  0  0  0  0  0  0  0  0  0  0  0
    0.0000    0.0000    0.0000 C   0  0  0  0  0  0  0  0  0  0  0  0
    0.0000    0.0000    0.0000 C   0  0  0  0  0  0  0  0  0  0  0  0
    0.0000    0.0000    0.0000 C   0  0  0  0  0  0  0  0  0  0  0  0
    0.0000    0.0000    0.0000 O   0  0  0  0  0  0  0  0  0  0  0  0
    0.0000    0.0000    0.0000 O   0  0  0  0  0  0  0  0  0  0  0  0
    0.0000    0.0000    0.0000 C   0  0  0  0  0  0  0  0  0  0  0  0
    0.0000    0.0000    0.0000 O   0  0  0  0  0  0  0  0  0  0  0  0
    0.0000    0.0000    0.0000 O   0  0  0  0  0  0  0  0  0  0  0  0
  1  2  2  0
  2  3  1  0
  2  4  1  0
  4  5  2  0
  6  4  1  0
  5  7  1  0
  8  6  2  0
  6  9  1  0
  7 10  1  0
  7 11  2  0
 11  8  1  0
  9 12  2  0
 10 13  1  0
 14 12  1  0
 12  3  1  0
 13 15  1  0
 13 16  1  0
 15 17  3  0
 16 18  2  0
 19 16  1  0
 18 20  1  0
 21 19  2  0
 20 22  2  0
 22 21  1  0
 22 23  1  0
 23 24  2  0
 23 25  1  0
 25 26  1  0
 26 27  1  0
 26 28  1  0
 27 29  1  0
 28 30  2  0
 28 31  1  0
 29 32  1  0
 31 33  1  0
 32 34  2  0
 32 35  1  0
 33 36  1  0
 33 37  1  0
 36 38  1  0
 37 39  2  0
 37 40  1  0
 38 41  1  0
 41 42  2  0
 41 43  1  0
 43 44  1  0
 44 45  1  0
 44 46  1  0
 45 47  1  0
 46 48  2  0
 46 49  1  0
 47 50  1  0
 50 51  2  0
 50 52  1  0
 52 53  1  0
 53 54  1  0
 53 55  1  0
 54 56  1  0
 55 57  2  0
 55 58  1  0
 56 59  1  0
 59 60  2  0
 59 61  1  0
 61 62  1  0
 62 63  1  0
 62 64  1  0
 63 65  1  0
 64 66  2  0
 64 67  1  0
 65 68  1  0
 68 69  2  0
 68 70  1  0
M  END
>  <pIC50>  (159) 
6.54

>  <ChEMBL_ID>  (159) 
CHEMBL1160181

>  <document_journal>  (159) 
J. Med. Chem.

>  <bao_endpoint>  (159) 
BAO_0000190

>  <potential_duplicate>  (159) 
False

>  <uo_units>  (159) 
UO_0000065

>  <canonical_smiles>  (159) 
Nc1nc(O)c2cc(CN(C#C)c3ccc(cc3)C(=O)NC(CCC(=O)O)C(=O)NC(CCC(=O)NC(CCC(=O)NC(CCC(=O)NC(CCC(=O)O)C(=O)O)C(=O)O)C(=O)O)C(=O)O)ccc2n1

>  <parent_molecule_chembl_id>  (159) 
CHEMBL1160181

>  <assay_type>  (159) 
B

>  <src_id>  (159) 
1

>  <ligand_efficiency>  (159) 
{u'le': u'0.13', u'bei': u'6.67', u'sei': u'1.47', u'lle': u'6.59'}

>  <standard_flag>  (159) 
True

>  <molecule_chembl_id>  (159) 
CHEMBL1160181

>  <target_organism>  (159) 
Homo sapiens

>  <standard_units>  (159) 
nM

>  <record_id>  (159) 
82747

>  <document_chembl_id>  (159) 
CHEMBL1123439

>  <bao_format>  (159) 
BAO_0000357

>  <data_validity_description>  (159) 
None

>  <activity_id>  (159) 
829024

>  <standard_type>  (159) 
IC50

>  <target_chembl_id>  (159) 
CHEMBL202

>  <data_validity_comment>  (159) 
None

>  <published_value>  (159) 
2.9E-7

>  <document_year>  (159) 
1986

>  <target_pref_name>  (159) 
Dihydrofolate reductase

>  <assay_chembl_id>  (159) 
CHEMBL662239

>  <standard_relation>  (159) 
=

>  <assay_description>  (159) 
Inhibitory activity against dihydrofolate reductase of Streptococcus faecium

>  <published_relation>  (159) 
=

>  <standard_value>  (159) 
290

>  <qudt_units>  (159) 
http://www.openphacts.org/units/Nanomolar

>  <target_tax_id>  (159) 
9606

>  <bao_label>  (159) 
single protein format

>  <published_units>  (159) 
M

>  <pchembl_value>  (159) 
6.54

>  <published_type>  (159) 
IC50

>  <activity_comment>  (159) 
None

$$$$

     RDKit          

 31 33  0  0  0  0  0  0  0  0999 V2000
    0.0000    0.0000    0.0000 N   0  0  0  0  0  0  0  0  0  0  0  0
    0.0000    0.0000    0.0000 C   0  0  0  0  0  0  0  0  0  0  0  0
    0.0000    0.0000    0.0000 C   0  0  0  0  0  0  0  0  0  0  0  0
    0.0000    0.0000    0.0000 C   0  0  0  0  0  0  0  0  0  0  0  0
    0.0000    0.0000    0.0000 C   0  0  0  0  0  0  0  0  0  0  0  0
    0.0000    0.0000    0.0000 N   0  0  0  0  0  0  0  0  0  0  0  0
    0.0000    0.0000    0.0000 C   0  0  0  0  0  0  0  0  0  0  0  0
    0.0000    0.0000    0.0000 O   0  0  0  0  0  0  0  0  0  0  0  0
    0.0000    0.0000    0.0000 C   0  0  0  0  0  0  0  0  0  0  0  0
    0.0000    0.0000    0.0000 C   0  0  0  0  0  0  0  0  0  0  0  0
    0.0000    0.0000    0.0000 C   0  0  0  0  0  0  0  0  0  0  0  0
    0.0000    0.0000    0.0000 C   0  0  0  0  0  0  0  0  0  0  0  0
    0.0000    0.0000    0.0000 N   0  0  0  0  0  0  0  0  0  0  0  0
    0.0000    0.0000    0.0000 C   0  0  0  0  0  0  0  0  0  0  0  0
    0.0000    0.0000    0.0000 C   0  0  0  0  0  0  0  0  0  0  0  0
    0.0000    0.0000    0.0000 C   0  0  0  0  0  0  0  0  0  0  0  0
    0.0000    0.0000    0.0000 C   0  0  0  0  0  0  0  0  0  0  0  0
    0.0000    0.0000    0.0000 C   0  0  0  0  0  0  0  0  0  0  0  0
    0.0000    0.0000    0.0000 N   0  0  0  0  0  0  0  0  0  0  0  0
    0.0000    0.0000    0.0000 C   0  0  0  0  0  0  0  0  0  0  0  0
    0.0000    0.0000    0.0000 N   0  0  0  0  0  0  0  0  0  0  0  0
    0.0000    0.0000    0.0000 N   0  0  0  0  0  0  0  0  0  0  0  0
    0.0000    0.0000    0.0000 C   0  0  0  0  0  0  0  0  0  0  0  0
    0.0000    0.0000    0.0000 N   0  0  0  0  0  0  0  0  0  0  0  0
    0.0000    0.0000    0.0000 C   0  0  0  0  0  0  0  0  0  0  0  0
    0.0000    0.0000    0.0000 N   0  0  0  0  0  0  0  0  0  0  0  0
    0.0000    0.0000    0.0000 C   0  0  0  0  0  0  0  0  0  0  0  0
    0.0000    0.0000    0.0000 C   0  0  0  0  0  0  0  0  0  0  0  0
    0.0000    0.0000    0.0000 C   0  0  0  0  0  0  0  0  0  0  0  0
    0.0000    0.0000    0.0000 O   0  0  0  0  0  0  0  0  0  0  0  0
    0.0000    0.0000    0.0000 O   0  0  0  0  0  0  0  0  0  0  0  0
  1  2  1  0
  2  3  1  0
  3  4  1  0
  4  5  1  0
  5  6  1  0
  6  7  1  0
  7  8  2  0
  7  9  1  0
  9 10  2  0
 10 11  1  0
 11 12  2  0
 12 13  1  0
 13 14  1  0
 14 15  1  0
 15 16  2  0
 16 17  1  0
 17 18  2  0
 18 19  1  0
 19 20  2  0
 20 21  1  0
 20 22  1  0
 22 23  2  0
 23 24  1  0
 23 25  1  0
 25 26  2  0
 12 27  1  0
 27 28  2  0
  5 29  1  0
 29 30  2  0
 29 31  1  0
 28  9  1  0
 26 15  1  0
 25 18  1  0
M  END
>  <pIC50>  (160) 
7.8

>  <ChEMBL_ID>  (160) 
CHEMBL35921

>  <document_journal>  (160) 
J. Med. Chem.

>  <bao_endpoint>  (160) 
BAO_0000190

>  <potential_duplicate>  (160) 
False

>  <uo_units>  (160) 
UO_0000065

>  <canonical_smiles>  (160) 
NCCCC(NC(=O)c1ccc(NCc2ccc3nc(N)nc(N)c3n2)cc1)C(=O)O

>  <parent_molecule_chembl_id>  (160) 
CHEMBL35921

>  <assay_type>  (160) 
B

>  <src_id>  (160) 
1

>  <ligand_efficiency>  (160) 
{u'le': u'0.34', u'bei': u'18.37', u'sei': u'3.99', u'lle': u'9.8'}

>  <standard_flag>  (160) 
True

>  <molecule_chembl_id>  (160) 
CHEMBL35921

>  <target_organism>  (160) 
Homo sapiens

>  <standard_units>  (160) 
nM

>  <record_id>  (160) 
52091

>  <document_chembl_id>  (160) 
CHEMBL1125675

>  <bao_format>  (160) 
BAO_0000357

>  <data_validity_description>  (160) 
None

>  <activity_id>  (160) 
829775

>  <standard_type>  (160) 
IC50

>  <target_chembl_id>  (160) 
CHEMBL202

>  <data_validity_comment>  (160) 
None

>  <published_value>  (160) 
0.016

>  <document_year>  (160) 
1991

>  <target_pref_name>  (160) 
Dihydrofolate reductase

>  <assay_chembl_id>  (160) 
CHEMBL668433

>  <standard_relation>  (160) 
=

>  <assay_description>  (160) 
Inhibition of dihydrofolate reductase(DHFR) enzyme from human leukemic lymphoblasts.

>  <published_relation>  (160) 
=

>  <standard_value>  (160) 
16

>  <qudt_units>  (160) 
http://www.openphacts.org/units/Nanomolar

>  <target_tax_id>  (160) 
9606

>  <bao_label>  (160) 
single protein format

>  <published_units>  (160) 
uM

>  <pchembl_value>  (160) 
7.8

>  <published_type>  (160) 
IC50

>  <activity_comment>  (160) 
None

$$$$

     RDKit          

 31 33  0  0  0  0  0  0  0  0999 V2000
    0.0000    0.0000    0.0000 N   0  0  0  0  0  0  0  0  0  0  0  0
    0.0000    0.0000    0.0000 C   0  0  0  0  0  0  0  0  0  0  0  0
    0.0000    0.0000    0.0000 C   0  0  0  0  0  0  0  0  0  0  0  0
    0.0000    0.0000    0.0000 C   0  0  0  0  0  0  0  0  0  0  0  0
    0.0000    0.0000    0.0000 C   0  0  0  0  0  0  0  0  0  0  0  0
    0.0000    0.0000    0.0000 N   0  0  0  0  0  0  0  0  0  0  0  0
    0.0000    0.0000    0.0000 C   0  0  0  0  0  0  0  0  0  0  0  0
    0.0000    0.0000    0.0000 O   0  0  0  0  0  0  0  0  0  0  0  0
    0.0000    0.0000    0.0000 C   0  0  0  0  0  0  0  0  0  0  0  0
    0.0000    0.0000    0.0000 C   0  0  0  0  0  0  0  0  0  0  0  0
    0.0000    0.0000    0.0000 C   0  0  0  0  0  0  0  0  0  0  0  0
    0.0000    0.0000    0.0000 C   0  0  0  0  0  0  0  0  0  0  0  0
    0.0000    0.0000    0.0000 N   0  0  0  0  0  0  0  0  0  0  0  0
    0.0000    0.0000    0.0000 C   0  0  0  0  0  0  0  0  0  0  0  0
    0.0000    0.0000    0.0000 C   0  0  0  0  0  0  0  0  0  0  0  0
    0.0000    0.0000    0.0000 C   0  0  0  0  0  0  0  0  0  0  0  0
    0.0000    0.0000    0.0000 N   0  0  0  0  0  0  0  0  0  0  0  0
    0.0000    0.0000    0.0000 C   0  0  0  0  0  0  0  0  0  0  0  0
    0.0000    0.0000    0.0000 N   0  0  0  0  0  0  0  0  0  0  0  0
    0.0000    0.0000    0.0000 C   0  0  0  0  0  0  0  0  0  0  0  0
    0.0000    0.0000    0.0000 N   0  0  0  0  0  0  0  0  0  0  0  0
    0.0000    0.0000    0.0000 N   0  0  0  0  0  0  0  0  0  0  0  0
    0.0000    0.0000    0.0000 C   0  0  0  0  0  0  0  0  0  0  0  0
    0.0000    0.0000    0.0000 N   0  0  0  0  0  0  0  0  0  0  0  0
    0.0000    0.0000    0.0000 C   0  0  0  0  0  0  0  0  0  0  0  0
    0.0000    0.0000    0.0000 N   0  0  0  0  0  0  0  0  0  0  0  0
    0.0000    0.0000    0.0000 C   0  0  0  0  0  0  0  0  0  0  0  0
    0.0000    0.0000    0.0000 C   0  0  0  0  0  0  0  0  0  0  0  0
    0.0000    0.0000    0.0000 C   0  0  0  0  0  0  0  0  0  0  0  0
    0.0000    0.0000    0.0000 O   0  0  0  0  0  0  0  0  0  0  0  0
    0.0000    0.0000    0.0000 O   0  0  0  0  0  0  0  0  0  0  0  0
  1  2  1  0
  2  3  1  0
  3  4  1  0
  4  5  1  0
  5  6  1  0
  6  7  1  0
  7  8  2  0
  7  9  1  0
  9 10  2  0
 10 11  1  0
 11 12  2  0
 12 13  1  0
 13 14  1  0
 14 15  1  0
 15 16  2  0
 16 17  1  0
 17 18  2  0
 18 19  1  0
 19 20  2  0
 20 21  1  0
 20 22  1  0
 22 23  2  0
 23 24  1  0
 23 25  1  0
 25 26  2  0
 12 27  1  0
 27 28  2  0
  5 29  1  0
 29 30  2  0
 29 31  1  0
 28  9  1  0
 26 15  1  0
 25 18  1  0
M  END
>  <pIC50>  (161) 
7.14

>  <ChEMBL_ID>  (161) 
CHEMBL280864

>  <document_journal>  (161) 
J. Med. Chem.

>  <bao_endpoint>  (161) 
BAO_0000190

>  <potential_duplicate>  (161) 
False

>  <uo_units>  (161) 
UO_0000065

>  <canonical_smiles>  (161) 
NCCCC(NC(=O)c1ccc(NCc2cnc3nc(N)nc(N)c3n2)cc1)C(=O)O

>  <parent_molecule_chembl_id>  (161) 
CHEMBL280864

>  <assay_type>  (161) 
B

>  <src_id>  (161) 
1

>  <ligand_efficiency>  (161) 
{u'le': u'0.31', u'bei': u'16.79', u'sei': u'3.43', u'lle': u'10.1'}

>  <standard_flag>  (161) 
True

>  <molecule_chembl_id>  (161) 
CHEMBL280864

>  <target_organism>  (161) 
Homo sapiens

>  <standard_units>  (161) 
nM

>  <record_id>  (161) 
52089

>  <document_chembl_id>  (161) 
CHEMBL1125675

>  <bao_format>  (161) 
BAO_0000357

>  <data_validity_description>  (161) 
None

>  <activity_id>  (161) 
839267

>  <standard_type>  (161) 
IC50

>  <target_chembl_id>  (161) 
CHEMBL202

>  <data_validity_comment>  (161) 
None

>  <published_value>  (161) 
0.072

>  <document_year>  (161) 
1991

>  <target_pref_name>  (161) 
Dihydrofolate reductase

>  <assay_chembl_id>  (161) 
CHEMBL668433

>  <standard_relation>  (161) 
=

>  <assay_description>  (161) 
Inhibition of dihydrofolate reductase(DHFR) enzyme from human leukemic lymphoblasts.

>  <published_relation>  (161) 
=

>  <standard_value>  (161) 
72

>  <qudt_units>  (161) 
http://www.openphacts.org/units/Nanomolar

>  <target_tax_id>  (161) 
9606

>  <bao_label>  (161) 
single protein format

>  <published_units>  (161) 
uM

>  <pchembl_value>  (161) 
7.14

>  <published_type>  (161) 
IC50

>  <activity_comment>  (161) 
None

$$$$

     RDKit          

 52 54  0  0  0  0  0  0  0  0999 V2000
    0.0000    0.0000    0.0000 O   0  0  0  0  0  0  0  0  0  0  0  0
    0.0000    0.0000    0.0000 C   0  0  0  0  0  0  0  0  0  0  0  0
    0.0000    0.0000    0.0000 N   0  0  0  0  0  0  0  0  0  0  0  0
    0.0000    0.0000    0.0000 C   0  0  0  0  0  0  0  0  0  0  0  0
    0.0000    0.0000    0.0000 C   0  0  0  0  0  0  0  0  0  0  0  0
    0.0000    0.0000    0.0000 C   0  0  0  0  0  0  0  0  0  0  0  0
    0.0000    0.0000    0.0000 C   0  0  0  0  0  0  0  0  0  0  0  0
    0.0000    0.0000    0.0000 C   0  0  0  0  0  0  0  0  0  0  0  0
    0.0000    0.0000    0.0000 N   0  0  0  0  0  0  0  0  0  0  0  0
    0.0000    0.0000    0.0000 C   0  0  0  0  0  0  0  0  0  0  0  0
    0.0000    0.0000    0.0000 C   0  0  0  0  0  0  0  0  0  0  0  0
    0.0000    0.0000    0.0000 C   0  0  0  0  0  0  0  0  0  0  0  0
    0.0000    0.0000    0.0000 N   0  0  0  0  0  0  0  0  0  0  0  0
    0.0000    0.0000    0.0000 N   0  0  0  0  0  0  0  0  0  0  0  0
    0.0000    0.0000    0.0000 C   0  0  0  0  0  0  0  0  0  0  0  0
    0.0000    0.0000    0.0000 C   0  0  0  0  0  0  0  0  0  0  0  0
    0.0000    0.0000    0.0000 C   0  0  0  0  0  0  0  0  0  0  0  0
    0.0000    0.0000    0.0000 C   0  0  0  0  0  0  0  0  0  0  0  0
    0.0000    0.0000    0.0000 C   0  0  0  0  0  0  0  0  0  0  0  0
    0.0000    0.0000    0.0000 C   0  0  0  0  0  0  0  0  0  0  0  0
    0.0000    0.0000    0.0000 C   0  0  0  0  0  0  0  0  0  0  0  0
    0.0000    0.0000    0.0000 C   0  0  0  0  0  0  0  0  0  0  0  0
    0.0000    0.0000    0.0000 C   0  0  0  0  0  0  0  0  0  0  0  0
    0.0000    0.0000    0.0000 O   0  0  0  0  0  0  0  0  0  0  0  0
    0.0000    0.0000    0.0000 N   0  0  0  0  0  0  0  0  0  0  0  0
    0.0000    0.0000    0.0000 C   0  0  0  0  0  0  0  0  0  0  0  0
    0.0000    0.0000    0.0000 C   0  0  0  0  0  0  0  0  0  0  0  0
    0.0000    0.0000    0.0000 C   0  0  0  0  0  0  0  0  0  0  0  0
    0.0000    0.0000    0.0000 C   0  0  0  0  0  0  0  0  0  0  0  0
    0.0000    0.0000    0.0000 O   0  0  0  0  0  0  0  0  0  0  0  0
    0.0000    0.0000    0.0000 O   0  0  0  0  0  0  0  0  0  0  0  0
    0.0000    0.0000    0.0000 C   0  0  0  0  0  0  0  0  0  0  0  0
    0.0000    0.0000    0.0000 O   0  0  0  0  0  0  0  0  0  0  0  0
    0.0000    0.0000    0.0000 N   0  0  0  0  0  0  0  0  0  0  0  0
    0.0000    0.0000    0.0000 C   0  0  0  0  0  0  0  0  0  0  0  0
    0.0000    0.0000    0.0000 C   0  0  0  0  0  0  0  0  0  0  0  0
    0.0000    0.0000    0.0000 C   0  0  0  0  0  0  0  0  0  0  0  0
    0.0000    0.0000    0.0000 C   0  0  0  0  0  0  0  0  0  0  0  0
    0.0000    0.0000    0.0000 O   0  0  0  0  0  0  0  0  0  0  0  0
    0.0000    0.0000    0.0000 O   0  0  0  0  0  0  0  0  0  0  0  0
    0.0000    0.0000    0.0000 C   0  0  0  0  0  0  0  0  0  0  0  0
    0.0000    0.0000    0.0000 O   0  0  0  0  0  0  0  0  0  0  0  0
    0.0000    0.0000    0.0000 N   0  0  0  0  0  0  0  0  0  0  0  0
    0.0000    0.0000    0.0000 C   0  0  0  0  0  0  0  0  0  0  0  0
    0.0000    0.0000    0.0000 C   0  0  0  0  0  0  0  0  0  0  0  0
    0.0000    0.0000    0.0000 C   0  0  0  0  0  0  0  0  0  0  0  0
    0.0000    0.0000    0.0000 C   0  0  0  0  0  0  0  0  0  0  0  0
    0.0000    0.0000    0.0000 O   0  0  0  0  0  0  0  0  0  0  0  0
    0.0000    0.0000    0.0000 O   0  0  0  0  0  0  0  0  0  0  0  0
    0.0000    0.0000    0.0000 C   0  0  0  0  0  0  0  0  0  0  0  0
    0.0000    0.0000    0.0000 O   0  0  0  0  0  0  0  0  0  0  0  0
    0.0000    0.0000    0.0000 O   0  0  0  0  0  0  0  0  0  0  0  0
  1  2  2  0
  2  3  1  0
  2  4  1  0
  4  5  2  0
  6  4  1  0
  5  7  1  0
  8  6  2  0
  6  9  1  0
  7 10  1  0
  7 11  2  0
 11  8  1  0
  9 12  2  0
 10 13  1  0
 14 12  1  0
 12  3  1  0
 13 15  1  0
 13 16  1  0
 15 17  3  0
 16 18  2  0
 19 16  1  0
 18 20  1  0
 21 19  2  0
 20 22  2  0
 22 21  1  0
 22 23  1  0
 23 24  2  0
 23 25  1  0
 25 26  1  0
 26 27  1  0
 26 28  1  0
 27 29  1  0
 28 30  2  0
 28 31  1  0
 29 32  1  0
 32 33  2  0
 32 34  1  0
 34 35  1  0
 35 36  1  0
 35 37  1  0
 36 38  1  0
 37 39  2  0
 37 40  1  0
 38 41  1  0
 41 42  2  0
 41 43  1  0
 43 44  1  0
 44 45  1  0
 44 46  1  0
 45 47  1  0
 46 48  2  0
 46 49  1  0
 47 50  1  0
 50 51  2  0
 50 52  1  0
M  END
>  <pIC50>  (162) 
6.43

>  <ChEMBL_ID>  (162) 
CHEMBL1160188

>  <document_journal>  (162) 
J. Med. Chem.

>  <bao_endpoint>  (162) 
BAO_0000190

>  <potential_duplicate>  (162) 
False

>  <uo_units>  (162) 
UO_0000065

>  <canonical_smiles>  (162) 
Nc1nc(O)c2cc(CN(C#C)c3ccc(cc3)C(=O)NC(CCC(=O)NC(CCC(=O)NC(CCC(=O)O)C(=O)O)C(=O)O)C(=O)O)ccc2n1

>  <parent_molecule_chembl_id>  (162) 
CHEMBL1160188

>  <assay_type>  (162) 
B

>  <src_id>  (162) 
1

>  <ligand_efficiency>  (162) 
{u'le': u'0.17', u'bei': u'8.91', u'sei': u'2.06', u'lle': u'4.97'}

>  <standard_flag>  (162) 
True

>  <molecule_chembl_id>  (162) 
CHEMBL1160188

>  <target_organism>  (162) 
Homo sapiens

>  <standard_units>  (162) 
nM

>  <record_id>  (162) 
82740

>  <document_chembl_id>  (162) 
CHEMBL1123439

>  <bao_format>  (162) 
BAO_0000357

>  <data_validity_description>  (162) 
None

>  <activity_id>  (162) 
842196

>  <standard_type>  (162) 
IC50

>  <target_chembl_id>  (162) 
CHEMBL202

>  <data_validity_comment>  (162) 
None

>  <published_value>  (162) 
3.7E-7

>  <document_year>  (162) 
1986

>  <target_pref_name>  (162) 
Dihydrofolate reductase

>  <assay_chembl_id>  (162) 
CHEMBL662239

>  <standard_relation>  (162) 
=

>  <assay_description>  (162) 
Inhibitory activity against dihydrofolate reductase of Streptococcus faecium

>  <published_relation>  (162) 
=

>  <standard_value>  (162) 
370

>  <qudt_units>  (162) 
http://www.openphacts.org/units/Nanomolar

>  <target_tax_id>  (162) 
9606

>  <bao_label>  (162) 
single protein format

>  <published_units>  (162) 
M

>  <pchembl_value>  (162) 
6.43

>  <published_type>  (162) 
IC50

>  <activity_comment>  (162) 
None

$$$$

     RDKit          

 31 33  0  0  0  0  0  0  0  0999 V2000
    0.0000    0.0000    0.0000 N   0  0  0  0  0  0  0  0  0  0  0  0
    0.0000    0.0000    0.0000 C   0  0  0  0  0  0  0  0  0  0  0  0
    0.0000    0.0000    0.0000 C   0  0  0  0  0  0  0  0  0  0  0  0
    0.0000    0.0000    0.0000 C   0  0  0  0  0  0  0  0  0  0  0  0
    0.0000    0.0000    0.0000 C   0  0  0  0  0  0  0  0  0  0  0  0
    0.0000    0.0000    0.0000 N   0  0  0  0  0  0  0  0  0  0  0  0
    0.0000    0.0000    0.0000 C   0  0  0  0  0  0  0  0  0  0  0  0
    0.0000    0.0000    0.0000 O   0  0  0  0  0  0  0  0  0  0  0  0
    0.0000    0.0000    0.0000 C   0  0  0  0  0  0  0  0  0  0  0  0
    0.0000    0.0000    0.0000 C   0  0  0  0  0  0  0  0  0  0  0  0
    0.0000    0.0000    0.0000 C   0  0  0  0  0  0  0  0  0  0  0  0
    0.0000    0.0000    0.0000 C   0  0  0  0  0  0  0  0  0  0  0  0
    0.0000    0.0000    0.0000 N   0  0  0  0  0  0  0  0  0  0  0  0
    0.0000    0.0000    0.0000 C   0  0  0  0  0  0  0  0  0  0  0  0
    0.0000    0.0000    0.0000 C   0  0  0  0  0  0  0  0  0  0  0  0
    0.0000    0.0000    0.0000 C   0  0  0  0  0  0  0  0  0  0  0  0
    0.0000    0.0000    0.0000 N   0  0  0  0  0  0  0  0  0  0  0  0
    0.0000    0.0000    0.0000 C   0  0  0  0  0  0  0  0  0  0  0  0
    0.0000    0.0000    0.0000 N   0  0  0  0  0  0  0  0  0  0  0  0
    0.0000    0.0000    0.0000 C   0  0  0  0  0  0  0  0  0  0  0  0
    0.0000    0.0000    0.0000 N   0  0  0  0  0  0  0  0  0  0  0  0
    0.0000    0.0000    0.0000 N   0  0  0  0  0  0  0  0  0  0  0  0
    0.0000    0.0000    0.0000 C   0  0  0  0  0  0  0  0  0  0  0  0
    0.0000    0.0000    0.0000 N   0  0  0  0  0  0  0  0  0  0  0  0
    0.0000    0.0000    0.0000 C   0  0  0  0  0  0  0  0  0  0  0  0
    0.0000    0.0000    0.0000 C   0  0  0  0  0  0  0  0  0  0  0  0
    0.0000    0.0000    0.0000 C   0  0  0  0  0  0  0  0  0  0  0  0
    0.0000    0.0000    0.0000 C   0  0  0  0  0  0  0  0  0  0  0  0
    0.0000    0.0000    0.0000 C   0  0  0  0  0  0  0  0  0  0  0  0
    0.0000    0.0000    0.0000 O   0  0  0  0  0  0  0  0  0  0  0  0
    0.0000    0.0000    0.0000 O   0  0  0  0  0  0  0  0  0  0  0  0
  1  2  1  0
  2  3  1  0
  3  4  1  0
  4  5  1  0
  5  6  1  0
  6  7  1  0
  7  8  2  0
  7  9  1  0
  9 10  2  0
 10 11  1  0
 11 12  2  0
 12 13  1  0
 13 14  1  0
 14 15  1  0
 15 16  2  0
 16 17  1  0
 17 18  2  0
 18 19  1  0
 19 20  2  0
 20 21  1  0
 20 22  1  0
 22 23  2  0
 23 24  1  0
 23 25  1  0
 25 26  2  0
 12 27  1  0
 27 28  2  0
  5 29  1  0
 29 30  2  0
 29 31  1  0
 28  9  1  0
 26 15  1  0
 25 18  1  0
M  END
>  <pIC50>  (163) 
4.57

>  <ChEMBL_ID>  (163) 
CHEMBL287532

>  <document_journal>  (163) 
J. Med. Chem.

>  <bao_endpoint>  (163) 
BAO_0000190

>  <potential_duplicate>  (163) 
False

>  <uo_units>  (163) 
UO_0000065

>  <canonical_smiles>  (163) 
NCCCC(NC(=O)c1ccc(NCc2cnc3nc(N)nc(N)c3c2)cc1)C(=O)O

>  <parent_molecule_chembl_id>  (163) 
CHEMBL287532

>  <assay_type>  (163) 
B

>  <src_id>  (163) 
1

>  <ligand_efficiency>  (163) 
{u'le': u'0.2', u'bei': u'10.76', u'sei': u'2.34', u'lle': u'7.02'}

>  <standard_flag>  (163) 
True

>  <molecule_chembl_id>  (163) 
CHEMBL287532

>  <target_organism>  (163) 
Homo sapiens

>  <standard_units>  (163) 
nM

>  <record_id>  (163) 
52092

>  <document_chembl_id>  (163) 
CHEMBL1125675

>  <bao_format>  (163) 
BAO_0000357

>  <data_validity_description>  (163) 
None

>  <activity_id>  (163) 
844087

>  <standard_type>  (163) 
IC50

>  <target_chembl_id>  (163) 
CHEMBL202

>  <data_validity_comment>  (163) 
None

>  <published_value>  (163) 
27

>  <document_year>  (163) 
1991

>  <target_pref_name>  (163) 
Dihydrofolate reductase

>  <assay_chembl_id>  (163) 
CHEMBL668433

>  <standard_relation>  (163) 
=

>  <assay_description>  (163) 
Inhibition of dihydrofolate reductase(DHFR) enzyme from human leukemic lymphoblasts.

>  <published_relation>  (163) 
=

>  <standard_value>  (163) 
27000

>  <qudt_units>  (163) 
http://www.openphacts.org/units/Nanomolar

>  <target_tax_id>  (163) 
9606

>  <bao_label>  (163) 
single protein format

>  <published_units>  (163) 
uM

>  <pchembl_value>  (163) 
4.57

>  <published_type>  (163) 
IC50

>  <activity_comment>  (163) 
None

$$$$

     RDKit          

 43 45  0  0  0  0  0  0  0  0999 V2000
    0.0000    0.0000    0.0000 O   0  0  0  0  0  0  0  0  0  0  0  0
    0.0000    0.0000    0.0000 C   0  0  0  0  0  0  0  0  0  0  0  0
    0.0000    0.0000    0.0000 N   0  0  0  0  0  0  0  0  0  0  0  0
    0.0000    0.0000    0.0000 C   0  0  0  0  0  0  0  0  0  0  0  0
    0.0000    0.0000    0.0000 C   0  0  0  0  0  0  0  0  0  0  0  0
    0.0000    0.0000    0.0000 C   0  0  0  0  0  0  0  0  0  0  0  0
    0.0000    0.0000    0.0000 C   0  0  0  0  0  0  0  0  0  0  0  0
    0.0000    0.0000    0.0000 C   0  0  0  0  0  0  0  0  0  0  0  0
    0.0000    0.0000    0.0000 N   0  0  0  0  0  0  0  0  0  0  0  0
    0.0000    0.0000    0.0000 C   0  0  0  0  0  0  0  0  0  0  0  0
    0.0000    0.0000    0.0000 C   0  0  0  0  0  0  0  0  0  0  0  0
    0.0000    0.0000    0.0000 C   0  0  0  0  0  0  0  0  0  0  0  0
    0.0000    0.0000    0.0000 N   0  0  0  0  0  0  0  0  0  0  0  0
    0.0000    0.0000    0.0000 N   0  0  0  0  0  0  0  0  0  0  0  0
    0.0000    0.0000    0.0000 C   0  0  0  0  0  0  0  0  0  0  0  0
    0.0000    0.0000    0.0000 C   0  0  0  0  0  0  0  0  0  0  0  0
    0.0000    0.0000    0.0000 C   0  0  0  0  0  0  0  0  0  0  0  0
    0.0000    0.0000    0.0000 C   0  0  0  0  0  0  0  0  0  0  0  0
    0.0000    0.0000    0.0000 C   0  0  0  0  0  0  0  0  0  0  0  0
    0.0000    0.0000    0.0000 C   0  0  0  0  0  0  0  0  0  0  0  0
    0.0000    0.0000    0.0000 C   0  0  0  0  0  0  0  0  0  0  0  0
    0.0000    0.0000    0.0000 C   0  0  0  0  0  0  0  0  0  0  0  0
    0.0000    0.0000    0.0000 C   0  0  0  0  0  0  0  0  0  0  0  0
    0.0000    0.0000    0.0000 O   0  0  0  0  0  0  0  0  0  0  0  0
    0.0000    0.0000    0.0000 N   0  0  0  0  0  0  0  0  0  0  0  0
    0.0000    0.0000    0.0000 C   0  0  0  0  0  0  0  0  0  0  0  0
    0.0000    0.0000    0.0000 C   0  0  0  0  0  0  0  0  0  0  0  0
    0.0000    0.0000    0.0000 C   0  0  0  0  0  0  0  0  0  0  0  0
    0.0000    0.0000    0.0000 C   0  0  0  0  0  0  0  0  0  0  0  0
    0.0000    0.0000    0.0000 O   0  0  0  0  0  0  0  0  0  0  0  0
    0.0000    0.0000    0.0000 N   0  0  0  0  0  0  0  0  0  0  0  0
    0.0000    0.0000    0.0000 C   0  0  0  0  0  0  0  0  0  0  0  0
    0.0000    0.0000    0.0000 C   0  0  0  0  0  0  0  0  0  0  0  0
    0.0000    0.0000    0.0000 O   0  0  0  0  0  0  0  0  0  0  0  0
    0.0000    0.0000    0.0000 O   0  0  0  0  0  0  0  0  0  0  0  0
    0.0000    0.0000    0.0000 C   0  0  0  0  0  0  0  0  0  0  0  0
    0.0000    0.0000    0.0000 C   0  0  0  0  0  0  0  0  0  0  0  0
    0.0000    0.0000    0.0000 C   0  0  0  0  0  0  0  0  0  0  0  0
    0.0000    0.0000    0.0000 O   0  0  0  0  0  0  0  0  0  0  0  0
    0.0000    0.0000    0.0000 O   0  0  0  0  0  0  0  0  0  0  0  0
    0.0000    0.0000    0.0000 C   0  0  0  0  0  0  0  0  0  0  0  0
    0.0000    0.0000    0.0000 O   0  0  0  0  0  0  0  0  0  0  0  0
    0.0000    0.0000    0.0000 O   0  0  0  0  0  0  0  0  0  0  0  0
  1  2  2  0
  2  3  1  0
  2  4  1  0
  4  5  2  0
  6  4  1  0
  5  7  1  0
  8  6  2  0
  6  9  1  0
  7 10  1  0
  7 11  2  0
 11  8  1  0
  9 12  2  0
 10 13  1  0
 14 12  1  0
 12  3  1  0
 13 15  1  0
 13 16  1  0
 15 17  3  0
 16 18  2  0
 19 16  1  0
 18 20  1  0
 21 19  2  0
 20 22  2  0
 22 21  1  0
 22 23  1  0
 23 24  2  0
 23 25  1  0
 25 26  1  0
 26 27  1  0
 26 28  1  0
 27 29  1  0
 28 30  2  0
 28 31  1  0
 29 32  1  0
 31 33  1  0
 32 34  2  0
 32 35  1  0
 33 36  1  0
 33 37  1  0
 36 38  1  0
 37 39  2  0
 37 40  1  0
 38 41  1  0
 41 42  2  0
 41 43  1  0
M  END
>  <pIC50>  (164) 
6.47

>  <ChEMBL_ID>  (164) 
CHEMBL1160189

>  <document_journal>  (164) 
J. Med. Chem.

>  <bao_endpoint>  (164) 
BAO_0000190

>  <potential_duplicate>  (164) 
False

>  <uo_units>  (164) 
UO_0000065

>  <canonical_smiles>  (164) 
Nc1nc(O)c2cc(CN(C#C)c3ccc(cc3)C(=O)NC(CCC(=O)O)C(=O)NC(CCC(=O)O)C(=O)O)ccc2n1

>  <parent_molecule_chembl_id>  (164) 
CHEMBL1160189

>  <assay_type>  (164) 
B

>  <src_id>  (164) 
1

>  <ligand_efficiency>  (164) 
{u'le': u'0.21', u'bei': u'10.92', u'sei': u'2.64', u'lle': u'4.26'}

>  <standard_flag>  (164) 
True

>  <molecule_chembl_id>  (164) 
CHEMBL1160189

>  <target_organism>  (164) 
Homo sapiens

>  <standard_units>  (164) 
nM

>  <record_id>  (164) 
82741

>  <document_chembl_id>  (164) 
CHEMBL1123439

>  <bao_format>  (164) 
BAO_0000357

>  <data_validity_description>  (164) 
None

>  <activity_id>  (164) 
848041

>  <standard_type>  (164) 
IC50

>  <target_chembl_id>  (164) 
CHEMBL202

>  <data_validity_comment>  (164) 
None

>  <published_value>  (164) 
3.4E-7

>  <document_year>  (164) 
1986

>  <target_pref_name>  (164) 
Dihydrofolate reductase

>  <assay_chembl_id>  (164) 
CHEMBL662239

>  <standard_relation>  (164) 
=

>  <assay_description>  (164) 
Inhibitory activity against dihydrofolate reductase of Streptococcus faecium

>  <published_relation>  (164) 
=

>  <standard_value>  (164) 
340

>  <qudt_units>  (164) 
http://www.openphacts.org/units/Nanomolar

>  <target_tax_id>  (164) 
9606

>  <bao_label>  (164) 
single protein format

>  <published_units>  (164) 
M

>  <pchembl_value>  (164) 
6.47

>  <published_type>  (164) 
IC50

>  <activity_comment>  (164) 
None

$$$$

     RDKit          

 61 63  0  0  0  0  0  0  0  0999 V2000
    0.0000    0.0000    0.0000 O   0  0  0  0  0  0  0  0  0  0  0  0
    0.0000    0.0000    0.0000 C   0  0  0  0  0  0  0  0  0  0  0  0
    0.0000    0.0000    0.0000 N   0  0  0  0  0  0  0  0  0  0  0  0
    0.0000    0.0000    0.0000 C   0  0  0  0  0  0  0  0  0  0  0  0
    0.0000    0.0000    0.0000 C   0  0  0  0  0  0  0  0  0  0  0  0
    0.0000    0.0000    0.0000 C   0  0  0  0  0  0  0  0  0  0  0  0
    0.0000    0.0000    0.0000 C   0  0  0  0  0  0  0  0  0  0  0  0
    0.0000    0.0000    0.0000 C   0  0  0  0  0  0  0  0  0  0  0  0
    0.0000    0.0000    0.0000 N   0  0  0  0  0  0  0  0  0  0  0  0
    0.0000    0.0000    0.0000 C   0  0  0  0  0  0  0  0  0  0  0  0
    0.0000    0.0000    0.0000 C   0  0  0  0  0  0  0  0  0  0  0  0
    0.0000    0.0000    0.0000 C   0  0  0  0  0  0  0  0  0  0  0  0
    0.0000    0.0000    0.0000 N   0  0  0  0  0  0  0  0  0  0  0  0
    0.0000    0.0000    0.0000 N   0  0  0  0  0  0  0  0  0  0  0  0
    0.0000    0.0000    0.0000 C   0  0  0  0  0  0  0  0  0  0  0  0
    0.0000    0.0000    0.0000 C   0  0  0  0  0  0  0  0  0  0  0  0
    0.0000    0.0000    0.0000 C   0  0  0  0  0  0  0  0  0  0  0  0
    0.0000    0.0000    0.0000 C   0  0  0  0  0  0  0  0  0  0  0  0
    0.0000    0.0000    0.0000 C   0  0  0  0  0  0  0  0  0  0  0  0
    0.0000    0.0000    0.0000 C   0  0  0  0  0  0  0  0  0  0  0  0
    0.0000    0.0000    0.0000 C   0  0  0  0  0  0  0  0  0  0  0  0
    0.0000    0.0000    0.0000 C   0  0  0  0  0  0  0  0  0  0  0  0
    0.0000    0.0000    0.0000 C   0  0  0  0  0  0  0  0  0  0  0  0
    0.0000    0.0000    0.0000 O   0  0  0  0  0  0  0  0  0  0  0  0
    0.0000    0.0000    0.0000 N   0  0  0  0  0  0  0  0  0  0  0  0
    0.0000    0.0000    0.0000 C   0  0  0  0  0  0  0  0  0  0  0  0
    0.0000    0.0000    0.0000 C   0  0  0  0  0  0  0  0  0  0  0  0
    0.0000    0.0000    0.0000 C   0  0  0  0  0  0  0  0  0  0  0  0
    0.0000    0.0000    0.0000 C   0  0  0  0  0  0  0  0  0  0  0  0
    0.0000    0.0000    0.0000 O   0  0  0  0  0  0  0  0  0  0  0  0
    0.0000    0.0000    0.0000 N   0  0  0  0  0  0  0  0  0  0  0  0
    0.0000    0.0000    0.0000 C   0  0  0  0  0  0  0  0  0  0  0  0
    0.0000    0.0000    0.0000 C   0  0  0  0  0  0  0  0  0  0  0  0
    0.0000    0.0000    0.0000 O   0  0  0  0  0  0  0  0  0  0  0  0
    0.0000    0.0000    0.0000 O   0  0  0  0  0  0  0  0  0  0  0  0
    0.0000    0.0000    0.0000 C   0  0  0  0  0  0  0  0  0  0  0  0
    0.0000    0.0000    0.0000 C   0  0  0  0  0  0  0  0  0  0  0  0
    0.0000    0.0000    0.0000 C   0  0  0  0  0  0  0  0  0  0  0  0
    0.0000    0.0000    0.0000 O   0  0  0  0  0  0  0  0  0  0  0  0
    0.0000    0.0000    0.0000 O   0  0  0  0  0  0  0  0  0  0  0  0
    0.0000    0.0000    0.0000 C   0  0  0  0  0  0  0  0  0  0  0  0
    0.0000    0.0000    0.0000 O   0  0  0  0  0  0  0  0  0  0  0  0
    0.0000    0.0000    0.0000 N   0  0  0  0  0  0  0  0  0  0  0  0
    0.0000    0.0000    0.0000 C   0  0  0  0  0  0  0  0  0  0  0  0
    0.0000    0.0000    0.0000 C   0  0  0  0  0  0  0  0  0  0  0  0
    0.0000    0.0000    0.0000 C   0  0  0  0  0  0  0  0  0  0  0  0
    0.0000    0.0000    0.0000 C   0  0  0  0  0  0  0  0  0  0  0  0
    0.0000    0.0000    0.0000 O   0  0  0  0  0  0  0  0  0  0  0  0
    0.0000    0.0000    0.0000 O   0  0  0  0  0  0  0  0  0  0  0  0
    0.0000    0.0000    0.0000 C   0  0  0  0  0  0  0  0  0  0  0  0
    0.0000    0.0000    0.0000 O   0  0  0  0  0  0  0  0  0  0  0  0
    0.0000    0.0000    0.0000 N   0  0  0  0  0  0  0  0  0  0  0  0
    0.0000    0.0000    0.0000 C   0  0  0  0  0  0  0  0  0  0  0  0
    0.0000    0.0000    0.0000 C   0  0  0  0  0  0  0  0  0  0  0  0
    0.0000    0.0000    0.0000 C   0  0  0  0  0  0  0  0  0  0  0  0
    0.0000    0.0000    0.0000 C   0  0  0  0  0  0  0  0  0  0  0  0
    0.0000    0.0000    0.0000 O   0  0  0  0  0  0  0  0  0  0  0  0
    0.0000    0.0000    0.0000 O   0  0  0  0  0  0  0  0  0  0  0  0
    0.0000    0.0000    0.0000 C   0  0  0  0  0  0  0  0  0  0  0  0
    0.0000    0.0000    0.0000 O   0  0  0  0  0  0  0  0  0  0  0  0
    0.0000    0.0000    0.0000 O   0  0  0  0  0  0  0  0  0  0  0  0
  1  2  2  0
  2  3  1  0
  2  4  1  0
  4  5  2  0
  6  4  1  0
  5  7  1  0
  8  6  2  0
  6  9  1  0
  7 10  1  0
  7 11  2  0
 11  8  1  0
  9 12  2  0
 10 13  1  0
 14 12  1  0
 12  3  1  0
 13 15  1  0
 13 16  1  0
 15 17  3  0
 16 18  2  0
 19 16  1  0
 18 20  1  0
 21 19  2  0
 20 22  2  0
 22 21  1  0
 22 23  1  0
 23 24  2  0
 23 25  1  0
 25 26  1  0
 26 27  1  0
 26 28  1  0
 27 29  1  0
 28 30  2  0
 28 31  1  0
 29 32  1  0
 31 33  1  0
 32 34  2  0
 32 35  1  0
 33 36  1  0
 33 37  1  0
 36 38  1  0
 37 39  2  0
 37 40  1  0
 38 41  1  0
 41 42  2  0
 41 43  1  0
 43 44  1  0
 44 45  1  0
 44 46  1  0
 45 47  1  0
 46 48  2  0
 46 49  1  0
 47 50  1  0
 50 51  2  0
 50 52  1  0
 52 53  1  0
 53 54  1  0
 53 55  1  0
 54 56  1  0
 55 57  2  0
 55 58  1  0
 56 59  1  0
 59 60  2  0
 59 61  1  0
M  END
>  <pIC50>  (165) 
6.52

>  <ChEMBL_ID>  (165) 
CHEMBL1160192

>  <document_journal>  (165) 
J. Med. Chem.

>  <bao_endpoint>  (165) 
BAO_0000190

>  <potential_duplicate>  (165) 
False

>  <uo_units>  (165) 
UO_0000065

>  <canonical_smiles>  (165) 
Nc1nc(O)c2cc(CN(C#C)c3ccc(cc3)C(=O)NC(CCC(=O)O)C(=O)NC(CCC(=O)NC(CCC(=O)NC(CCC(=O)O)C(=O)O)C(=O)O)C(=O)O)ccc2n1

>  <parent_molecule_chembl_id>  (165) 
CHEMBL1160192

>  <assay_type>  (165) 
B

>  <src_id>  (165) 
1

>  <ligand_efficiency>  (165) 
{u'le': u'0.15', u'bei': u'7.67', u'sei': u'1.72', u'lle': u'5.81'}

>  <standard_flag>  (165) 
True

>  <molecule_chembl_id>  (165) 
CHEMBL1160192

>  <target_organism>  (165) 
Homo sapiens

>  <standard_units>  (165) 
nM

>  <record_id>  (165) 
82742

>  <document_chembl_id>  (165) 
CHEMBL1123439

>  <bao_format>  (165) 
BAO_0000357

>  <data_validity_description>  (165) 
None

>  <activity_id>  (165) 
851432

>  <standard_type>  (165) 
IC50

>  <target_chembl_id>  (165) 
CHEMBL202

>  <data_validity_comment>  (165) 
None

>  <published_value>  (165) 
3E-7

>  <document_year>  (165) 
1986

>  <target_pref_name>  (165) 
Dihydrofolate reductase

>  <assay_chembl_id>  (165) 
CHEMBL662239

>  <standard_relation>  (165) 
=

>  <assay_description>  (165) 
Inhibitory activity against dihydrofolate reductase of Streptococcus faecium

>  <published_relation>  (165) 
=

>  <standard_value>  (165) 
300

>  <qudt_units>  (165) 
http://www.openphacts.org/units/Nanomolar

>  <target_tax_id>  (165) 
9606

>  <bao_label>  (165) 
single protein format

>  <published_units>  (165) 
M

>  <pchembl_value>  (165) 
6.52

>  <published_type>  (165) 
IC50

>  <activity_comment>  (165) 
None

$$$$

     RDKit          

 33 35  0  0  0  0  0  0  0  0999 V2000
    0.0000    0.0000    0.0000 O   0  0  0  0  0  0  0  0  0  0  0  0
    0.0000    0.0000    0.0000 C   0  0  0  0  0  0  0  0  0  0  0  0
    0.0000    0.0000    0.0000 N   0  0  0  0  0  0  0  0  0  0  0  0
    0.0000    0.0000    0.0000 C   0  0  0  0  0  0  0  0  0  0  0  0
    0.0000    0.0000    0.0000 C   0  0  0  0  0  0  0  0  0  0  0  0
    0.0000    0.0000    0.0000 C   0  0  0  0  0  0  0  0  0  0  0  0
    0.0000    0.0000    0.0000 C   0  0  0  0  0  0  0  0  0  0  0  0
    0.0000    0.0000    0.0000 C   0  0  0  0  0  0  0  0  0  0  0  0
    0.0000    0.0000    0.0000 N   0  0  0  0  0  0  0  0  0  0  0  0
    0.0000    0.0000    0.0000 C   0  0  0  0  0  0  0  0  0  0  0  0
    0.0000    0.0000    0.0000 C   0  0  0  0  0  0  0  0  0  0  0  0
    0.0000    0.0000    0.0000 C   0  0  0  0  0  0  0  0  0  0  0  0
    0.0000    0.0000    0.0000 N   0  0  0  0  0  0  0  0  0  0  0  0
    0.0000    0.0000    0.0000 N   0  0  0  0  0  0  0  0  0  0  0  0
    0.0000    0.0000    0.0000 C   0  0  0  0  0  0  0  0  0  0  0  0
    0.0000    0.0000    0.0000 C   0  0  0  0  0  0  0  0  0  0  0  0
    0.0000    0.0000    0.0000 C   0  0  0  0  0  0  0  0  0  0  0  0
    0.0000    0.0000    0.0000 C   0  0  0  0  0  0  0  0  0  0  0  0
    0.0000    0.0000    0.0000 C   0  0  0  0  0  0  0  0  0  0  0  0
    0.0000    0.0000    0.0000 C   0  0  0  0  0  0  0  0  0  0  0  0
    0.0000    0.0000    0.0000 C   0  0  0  0  0  0  0  0  0  0  0  0
    0.0000    0.0000    0.0000 C   0  0  0  0  0  0  0  0  0  0  0  0
    0.0000    0.0000    0.0000 C   0  0  0  0  0  0  0  0  0  0  0  0
    0.0000    0.0000    0.0000 O   0  0  0  0  0  0  0  0  0  0  0  0
    0.0000    0.0000    0.0000 N   0  0  0  0  0  0  0  0  0  0  0  0
    0.0000    0.0000    0.0000 C   0  0  0  0  0  0  0  0  0  0  0  0
    0.0000    0.0000    0.0000 C   0  0  0  0  0  0  0  0  0  0  0  0
    0.0000    0.0000    0.0000 C   0  0  0  0  0  0  0  0  0  0  0  0
    0.0000    0.0000    0.0000 C   0  0  0  0  0  0  0  0  0  0  0  0
    0.0000    0.0000    0.0000 O   0  0  0  0  0  0  0  0  0  0  0  0
    0.0000    0.0000    0.0000 O   0  0  0  0  0  0  0  0  0  0  0  0
    0.0000    0.0000    0.0000 C   0  0  0  0  0  0  0  0  0  0  0  0
    0.0000    0.0000    0.0000 O   0  0  0  0  0  0  0  0  0  0  0  0
  1  2  2  0
  2  3  1  0
  2  4  1  0
  4  5  2  0
  6  4  1  0
  5  7  1  0
  8  6  2  0
  6  9  1  0
  7 10  1  0
  7 11  2  0
 11  8  1  0
  9 12  2  0
 10 13  1  0
 14 12  1  0
 12  3  1  0
 13 15  1  0
 13 16  1  0
 15 17  3  0
 16 18  2  0
 19 16  1  0
 18 20  1  0
 21 19  2  0
 20 22  2  0
 22 21  1  0
 22 23  1  0
 23 24  2  0
 23 25  1  0
 25 26  1  0
 26 27  1  0
 26 28  1  0
 27 29  1  0
 28 30  2  0
 28 31  1  0
 29 32  1  0
 32 33  2  0
M  END
>  <pIC50>  (166) 
6.19

>  <ChEMBL_ID>  (166) 
CHEMBL1160200

>  <document_journal>  (166) 
J. Med. Chem.

>  <bao_endpoint>  (166) 
BAO_0000190

>  <potential_duplicate>  (166) 
False

>  <uo_units>  (166) 
UO_0000065

>  <canonical_smiles>  (166) 
Nc1nc(O)c2cc(CN(C#C)c3ccc(cc3)C(=O)NC(CCC=O)C(=O)O)ccc2n1

>  <parent_molecule_chembl_id>  (166) 
CHEMBL1160200

>  <assay_type>  (166) 
B

>  <src_id>  (166) 
1

>  <ligand_efficiency>  (166) 
{u'le': u'0.26', u'bei': u'13.84', u'sei': u'3.9', u'lle': u'3.2'}

>  <standard_flag>  (166) 
True

>  <molecule_chembl_id>  (166) 
CHEMBL1160200

>  <target_organism>  (166) 
Homo sapiens

>  <standard_units>  (166) 
nM

>  <record_id>  (166) 
82739

>  <document_chembl_id>  (166) 
CHEMBL1123439

>  <bao_format>  (166) 
BAO_0000357

>  <data_validity_description>  (166) 
None

>  <activity_id>  (166) 
851578

>  <standard_type>  (166) 
IC50

>  <target_chembl_id>  (166) 
CHEMBL202

>  <data_validity_comment>  (166) 
None

>  <published_value>  (166) 
6.4E-7

>  <document_year>  (166) 
1986

>  <target_pref_name>  (166) 
Dihydrofolate reductase

>  <assay_chembl_id>  (166) 
CHEMBL662239

>  <standard_relation>  (166) 
=

>  <assay_description>  (166) 
Inhibitory activity against dihydrofolate reductase of Streptococcus faecium

>  <published_relation>  (166) 
=

>  <standard_value>  (166) 
640

>  <qudt_units>  (166) 
http://www.openphacts.org/units/Nanomolar

>  <target_tax_id>  (166) 
9606

>  <bao_label>  (166) 
single protein format

>  <published_units>  (166) 
M

>  <pchembl_value>  (166) 
6.19

>  <published_type>  (166) 
IC50

>  <activity_comment>  (166) 
None

$$$$

     RDKit          

 31 33  0  0  0  0  0  0  0  0999 V2000
    0.0000    0.0000    0.0000 N   0  0  0  0  0  0  0  0  0  0  0  0
    0.0000    0.0000    0.0000 C   0  0  0  0  0  0  0  0  0  0  0  0
    0.0000    0.0000    0.0000 C   0  0  0  0  0  0  0  0  0  0  0  0
    0.0000    0.0000    0.0000 C   0  0  0  0  0  0  0  0  0  0  0  0
    0.0000    0.0000    0.0000 C   0  0  0  0  0  0  0  0  0  0  0  0
    0.0000    0.0000    0.0000 N   0  0  0  0  0  0  0  0  0  0  0  0
    0.0000    0.0000    0.0000 C   0  0  0  0  0  0  0  0  0  0  0  0
    0.0000    0.0000    0.0000 O   0  0  0  0  0  0  0  0  0  0  0  0
    0.0000    0.0000    0.0000 C   0  0  0  0  0  0  0  0  0  0  0  0
    0.0000    0.0000    0.0000 C   0  0  0  0  0  0  0  0  0  0  0  0
    0.0000    0.0000    0.0000 C   0  0  0  0  0  0  0  0  0  0  0  0
    0.0000    0.0000    0.0000 C   0  0  0  0  0  0  0  0  0  0  0  0
    0.0000    0.0000    0.0000 N   0  0  0  0  0  0  0  0  0  0  0  0
    0.0000    0.0000    0.0000 C   0  0  0  0  0  0  0  0  0  0  0  0
    0.0000    0.0000    0.0000 C   0  0  0  0  0  0  0  0  0  0  0  0
    0.0000    0.0000    0.0000 C   0  0  0  0  0  0  0  0  0  0  0  0
    0.0000    0.0000    0.0000 C   0  0  0  0  0  0  0  0  0  0  0  0
    0.0000    0.0000    0.0000 C   0  0  0  0  0  0  0  0  0  0  0  0
    0.0000    0.0000    0.0000 N   0  0  0  0  0  0  0  0  0  0  0  0
    0.0000    0.0000    0.0000 C   0  0  0  0  0  0  0  0  0  0  0  0
    0.0000    0.0000    0.0000 N   0  0  0  0  0  0  0  0  0  0  0  0
    0.0000    0.0000    0.0000 N   0  0  0  0  0  0  0  0  0  0  0  0
    0.0000    0.0000    0.0000 C   0  0  0  0  0  0  0  0  0  0  0  0
    0.0000    0.0000    0.0000 N   0  0  0  0  0  0  0  0  0  0  0  0
    0.0000    0.0000    0.0000 C   0  0  0  0  0  0  0  0  0  0  0  0
    0.0000    0.0000    0.0000 C   0  0  0  0  0  0  0  0  0  0  0  0
    0.0000    0.0000    0.0000 C   0  0  0  0  0  0  0  0  0  0  0  0
    0.0000    0.0000    0.0000 C   0  0  0  0  0  0  0  0  0  0  0  0
    0.0000    0.0000    0.0000 C   0  0  0  0  0  0  0  0  0  0  0  0
    0.0000    0.0000    0.0000 O   0  0  0  0  0  0  0  0  0  0  0  0
    0.0000    0.0000    0.0000 O   0  0  0  0  0  0  0  0  0  0  0  0
  1  2  1  0
  2  3  1  0
  3  4  1  0
  4  5  1  0
  5  6  1  0
  6  7  1  0
  7  8  2  0
  7  9  1  0
  9 10  2  0
 10 11  1  0
 11 12  2  0
 12 13  1  0
 13 14  1  0
 14 15  1  0
 15 16  2  0
 16 17  1  0
 17 18  2  0
 18 19  1  0
 19 20  2  0
 20 21  1  0
 20 22  1  0
 22 23  2  0
 23 24  1  0
 23 25  1  0
 25 26  2  0
 12 27  1  0
 27 28  2  0
  5 29  1  0
 29 30  2  0
 29 31  1  0
 28  9  1  0
 26 15  1  0
 25 18  1  0
M  END
>  <pIC50>  (167) 
7.46

>  <ChEMBL_ID>  (167) 
CHEMBL32439

>  <document_journal>  (167) 
J. Med. Chem.

>  <bao_endpoint>  (167) 
BAO_0000190

>  <potential_duplicate>  (167) 
False

>  <uo_units>  (167) 
UO_0000065

>  <canonical_smiles>  (167) 
NCCCC(NC(=O)c1ccc(NCc2ccc3nc(N)nc(N)c3c2)cc1)C(=O)O

>  <parent_molecule_chembl_id>  (167) 
CHEMBL32439

>  <assay_type>  (167) 
B

>  <src_id>  (167) 
1

>  <ligand_efficiency>  (167) 
{u'le': u'0.33', u'bei': u'17.61', u'sei': u'4.09', u'lle': u'8.95'}

>  <standard_flag>  (167) 
True

>  <molecule_chembl_id>  (167) 
CHEMBL32439

>  <target_organism>  (167) 
Homo sapiens

>  <standard_units>  (167) 
nM

>  <record_id>  (167) 
52094

>  <document_chembl_id>  (167) 
CHEMBL1125675

>  <bao_format>  (167) 
BAO_0000357

>  <data_validity_description>  (167) 
None

>  <activity_id>  (167) 
853363

>  <standard_type>  (167) 
IC50

>  <target_chembl_id>  (167) 
CHEMBL202

>  <data_validity_comment>  (167) 
None

>  <published_value>  (167) 
0.035

>  <document_year>  (167) 
1991

>  <target_pref_name>  (167) 
Dihydrofolate reductase

>  <assay_chembl_id>  (167) 
CHEMBL668433

>  <standard_relation>  (167) 
=

>  <assay_description>  (167) 
Inhibition of dihydrofolate reductase(DHFR) enzyme from human leukemic lymphoblasts.

>  <published_relation>  (167) 
=

>  <standard_value>  (167) 
35

>  <qudt_units>  (167) 
http://www.openphacts.org/units/Nanomolar

>  <target_tax_id>  (167) 
9606

>  <bao_label>  (167) 
single protein format

>  <published_units>  (167) 
uM

>  <pchembl_value>  (167) 
7.46

>  <published_type>  (167) 
IC50

>  <activity_comment>  (167) 
None

$$$$

     RDKit          

 31 33  0  0  0  0  0  0  0  0999 V2000
    0.0000    0.0000    0.0000 O   0  0  0  0  0  0  0  0  0  0  0  0
    0.0000    0.0000    0.0000 C   0  0  0  0  0  0  0  0  0  0  0  0
    0.0000    0.0000    0.0000 N   0  0  0  0  0  0  0  0  0  0  0  0
    0.0000    0.0000    0.0000 C   0  0  0  0  0  0  0  0  0  0  0  0
    0.0000    0.0000    0.0000 C   0  0  0  0  0  0  0  0  0  0  0  0
    0.0000    0.0000    0.0000 C   0  0  0  0  0  0  0  0  0  0  0  0
    0.0000    0.0000    0.0000 C   0  0  0  0  0  0  0  0  0  0  0  0
    0.0000    0.0000    0.0000 C   0  0  0  0  0  0  0  0  0  0  0  0
    0.0000    0.0000    0.0000 N   0  0  0  0  0  0  0  0  0  0  0  0
    0.0000    0.0000    0.0000 C   0  0  0  0  0  0  0  0  0  0  0  0
    0.0000    0.0000    0.0000 C   0  0  0  0  0  0  0  0  0  0  0  0
    0.0000    0.0000    0.0000 C   0  0  0  0  0  0  0  0  0  0  0  0
    0.0000    0.0000    0.0000 N   0  0  0  0  0  0  0  0  0  0  0  0
    0.0000    0.0000    0.0000 N   0  0  0  0  0  0  0  0  0  0  0  0
    0.0000    0.0000    0.0000 C   0  0  0  0  0  0  0  0  0  0  0  0
    0.0000    0.0000    0.0000 C   0  0  0  0  0  0  0  0  0  0  0  0
    0.0000    0.0000    0.0000 C   0  0  0  0  0  0  0  0  0  0  0  0
    0.0000    0.0000    0.0000 C   0  0  0  0  0  0  0  0  0  0  0  0
    0.0000    0.0000    0.0000 C   0  0  0  0  0  0  0  0  0  0  0  0
    0.0000    0.0000    0.0000 C   0  0  0  0  0  0  0  0  0  0  0  0
    0.0000    0.0000    0.0000 C   0  0  0  0  0  0  0  0  0  0  0  0
    0.0000    0.0000    0.0000 N   0  0  0  0  0  0  0  0  0  0  0  0
    0.0000    0.0000    0.0000 O   0  0  0  0  0  0  0  0  0  0  0  0
    0.0000    0.0000    0.0000 C   0  0  0  0  0  0  0  0  0  0  0  0
    0.0000    0.0000    0.0000 C   0  0  0  0  0  0  0  0  0  0  0  0
    0.0000    0.0000    0.0000 C   0  0  0  0  0  0  0  0  0  0  0  0
    0.0000    0.0000    0.0000 C   0  0  0  0  0  0  0  0  0  0  0  0
    0.0000    0.0000    0.0000 O   0  0  0  0  0  0  0  0  0  0  0  0
    0.0000    0.0000    0.0000 O   0  0  0  0  0  0  0  0  0  0  0  0
    0.0000    0.0000    0.0000 C   0  0  0  0  0  0  0  0  0  0  0  0
    0.0000    0.0000    0.0000 N   0  0  0  0  0  0  0  0  0  0  0  0
  1  2  2  0
  2  3  1  0
  2  4  1  0
  4  5  2  0
  4  6  1  0
  5  7  1  0
  8  6  2  0
  6  9  1  0
 10  7  1  0
  7 11  2  0
 11  8  1  0
  9 12  2  0
 13 10  1  0
 12 14  1  0
 12  3  1  0
 15 13  1  0
 16 15  2  0
 15 17  1  0
 18 16  1  0
 17 19  2  0
 20 18  2  0
 19 20  1  0
 21 20  1  0
 22 21  1  0
 21 23  2  0
 24 22  1  0
 25 24  1  0
 24 26  1  0
 27 25  1  0
 26 28  2  0
 26 29  1  0
 30 27  1  0
 31 30  1  0
M  END
>  <pIC50>  (168) 
6.13

>  <ChEMBL_ID>  (168) 
CHEMBL35807

>  <document_journal>  (168) 
J. Med. Chem.

>  <bao_endpoint>  (168) 
BAO_0000190

>  <potential_duplicate>  (168) 
False

>  <uo_units>  (168) 
UO_0000065

>  <canonical_smiles>  (168) 
NCCCC(NC(=O)c1ccc(NCc2ccc3nc(N)nc(O)c3c2)cc1)C(=O)O

>  <parent_molecule_chembl_id>  (168) 
CHEMBL35807

>  <assay_type>  (168) 
B

>  <src_id>  (168) 
1

>  <ligand_efficiency>  (168) 
{u'le': u'0.27', u'bei': u'14.43', u'sei': u'3.47', u'lle': u'7.11'}

>  <standard_flag>  (168) 
True

>  <molecule_chembl_id>  (168) 
CHEMBL35807

>  <target_organism>  (168) 
Homo sapiens

>  <standard_units>  (168) 
nM

>  <record_id>  (168) 
52093

>  <document_chembl_id>  (168) 
CHEMBL1125675

>  <bao_format>  (168) 
BAO_0000357

>  <data_validity_description>  (168) 
None

>  <activity_id>  (168) 
857854

>  <standard_type>  (168) 
IC50

>  <target_chembl_id>  (168) 
CHEMBL202

>  <data_validity_comment>  (168) 
None

>  <published_value>  (168) 
0.75

>  <document_year>  (168) 
1991

>  <target_pref_name>  (168) 
Dihydrofolate reductase

>  <assay_chembl_id>  (168) 
CHEMBL668433

>  <standard_relation>  (168) 
=

>  <assay_description>  (168) 
Inhibition of dihydrofolate reductase(DHFR) enzyme from human leukemic lymphoblasts.

>  <published_relation>  (168) 
=

>  <standard_value>  (168) 
750

>  <qudt_units>  (168) 
http://www.openphacts.org/units/Nanomolar

>  <target_tax_id>  (168) 
9606

>  <bao_label>  (168) 
single protein format

>  <published_units>  (168) 
uM

>  <pchembl_value>  (168) 
6.13

>  <published_type>  (168) 
IC50

>  <activity_comment>  (168) 
None

$$$$

     RDKit          

 36 38  0  0  0  0  0  0  0  0999 V2000
    0.0000    0.0000    0.0000 C   0  0  0  0  0  0  0  0  0  0  0  0
    0.0000    0.0000    0.0000 N   0  0  0  0  0  0  0  0  0  0  0  0
    0.0000    0.0000    0.0000 C   0  0  0  0  0  0  0  0  0  0  0  0
    0.0000    0.0000    0.0000 C   0  0  0  0  0  0  0  0  0  0  0  0
    0.0000    0.0000    0.0000 C   0  0  0  0  0  0  0  0  0  0  0  0
    0.0000    0.0000    0.0000 N   0  0  0  0  0  0  0  0  0  0  0  0
    0.0000    0.0000    0.0000 C   0  0  0  0  0  0  0  0  0  0  0  0
    0.0000    0.0000    0.0000 N   0  0  0  0  0  0  0  0  0  0  0  0
    0.0000    0.0000    0.0000 C   0  0  0  0  0  0  0  0  0  0  0  0
    0.0000    0.0000    0.0000 N   0  0  0  0  0  0  0  0  0  0  0  0
    0.0000    0.0000    0.0000 N   0  0  0  0  0  0  0  0  0  0  0  0
    0.0000    0.0000    0.0000 C   0  0  0  0  0  0  0  0  0  0  0  0
    0.0000    0.0000    0.0000 N   0  0  0  0  0  0  0  0  0  0  0  0
    0.0000    0.0000    0.0000 C   0  0  0  0  0  0  0  0  0  0  0  0
    0.0000    0.0000    0.0000 N   0  0  0  0  0  0  0  0  0  0  0  0
    0.0000    0.0000    0.0000 C   0  0  0  0  0  0  0  0  0  0  0  0
    0.0000    0.0000    0.0000 C   0  0  0  0  0  0  0  0  0  0  0  0
    0.0000    0.0000    0.0000 C   0  0  0  0  0  0  0  0  0  0  0  0
    0.0000    0.0000    0.0000 C   0  0  0  0  0  0  0  0  0  0  0  0
    0.0000    0.0000    0.0000 C   0  0  0  0  0  0  0  0  0  0  0  0
    0.0000    0.0000    0.0000 C   0  0  0  0  0  0  0  0  0  0  0  0
    0.0000    0.0000    0.0000 C   0  0  0  0  0  0  0  0  0  0  0  0
    0.0000    0.0000    0.0000 O   0  0  0  0  0  0  0  0  0  0  0  0
    0.0000    0.0000    0.0000 N   0  0  0  0  0  0  0  0  0  0  0  0
    0.0000    0.0000    0.0000 C   0  0  0  0  0  0  0  0  0  0  0  0
    0.0000    0.0000    0.0000 C   0  0  0  0  0  0  0  0  0  0  0  0
    0.0000    0.0000    0.0000 C   0  0  0  0  0  0  0  0  0  0  0  0
    0.0000    0.0000    0.0000 C   0  0  0  0  0  0  0  0  0  0  0  0
    0.0000    0.0000    0.0000 N   0  0  0  0  0  0  0  0  0  0  0  0
    0.0000    0.0000    0.0000 C   0  0  0  0  0  0  0  0  0  0  0  0
    0.0000    0.0000    0.0000 C   0  0  0  0  0  0  0  0  0  0  0  0
    0.0000    0.0000    0.0000 O   0  0  0  0  0  0  0  0  0  0  0  0
    0.0000    0.0000    0.0000 O   0  0  0  0  0  0  0  0  0  0  0  0
    0.0000    0.0000    0.0000 C   0  0  0  0  0  0  0  0  0  0  0  0
    0.0000    0.0000    0.0000 O   0  0  0  0  0  0  0  0  0  0  0  0
    0.0000    0.0000    0.0000 O   0  0  0  0  0  0  0  0  0  0  0  0
  1  2  1  0
  2  3  1  0
  3  4  1  0
  4  5  2  0
  5  6  1  0
  6  7  2  0
  7  8  1  0
  8  9  2  0
  9 10  1  0
  9 11  1  0
 11 12  2  0
 12 13  1  0
 12 14  1  0
 14 15  2  0
  2 16  1  0
 16 17  2  0
 17 18  1  0
 18 19  2  0
 19 20  1  0
 20 21  2  0
 19 22  1  0
 22 23  2  0
 22 24  1  0
 24 25  1  0
 25 26  1  0
 26 27  1  0
 27 28  1  0
 28 29  1  0
 29 30  1  0
 30 31  1  0
 31 32  2  0
 31 33  1  0
 25 34  1  0
 34 35  2  0
 34 36  1  0
 15  4  1  0
 14  7  1  0
 21 16  1  0
M  END
>  <pIC50>  (169) 
7.3

>  <ChEMBL_ID>  (169) 
CHEMBL32691

>  <document_journal>  (169) 
J. Med. Chem.

>  <bao_endpoint>  (169) 
BAO_0000190

>  <potential_duplicate>  (169) 
False

>  <uo_units>  (169) 
UO_0000065

>  <canonical_smiles>  (169) 
CN(Cc1cnc2nc(N)nc(N)c2n1)c3ccc(cc3)C(=O)NC(CCCNCC(=O)O)C(=O)O

>  <parent_molecule_chembl_id>  (169) 
CHEMBL32691

>  <assay_type>  (169) 
B

>  <src_id>  (169) 
1

>  <ligand_efficiency>  (169) 
{u'le': u'0.28', u'bei': u'14.68', u'sei': u'3.28', u'lle': u'10.22'}

>  <standard_flag>  (169) 
True

>  <molecule_chembl_id>  (169) 
CHEMBL32691

>  <target_organism>  (169) 
Homo sapiens

>  <standard_units>  (169) 
nM

>  <record_id>  (169) 
52096

>  <document_chembl_id>  (169) 
CHEMBL1125675

>  <bao_format>  (169) 
BAO_0000357

>  <data_validity_description>  (169) 
None

>  <activity_id>  (169) 
860265

>  <standard_type>  (169) 
IC50

>  <target_chembl_id>  (169) 
CHEMBL202

>  <data_validity_comment>  (169) 
None

>  <published_value>  (169) 
0.05

>  <document_year>  (169) 
1991

>  <target_pref_name>  (169) 
Dihydrofolate reductase

>  <assay_chembl_id>  (169) 
CHEMBL668433

>  <standard_relation>  (169) 
=

>  <assay_description>  (169) 
Inhibition of dihydrofolate reductase(DHFR) enzyme from human leukemic lymphoblasts.

>  <published_relation>  (169) 
=

>  <standard_value>  (169) 
50

>  <qudt_units>  (169) 
http://www.openphacts.org/units/Nanomolar

>  <target_tax_id>  (169) 
9606

>  <bao_label>  (169) 
single protein format

>  <published_units>  (169) 
uM

>  <pchembl_value>  (169) 
7.3

>  <published_type>  (169) 
IC50

>  <activity_comment>  (169) 
None

$$$$

     RDKit          

 31 33  0  0  0  0  0  0  0  0999 V2000
    0.0000    0.0000    0.0000 O   0  0  0  0  0  0  0  0  0  0  0  0
    0.0000    0.0000    0.0000 C   0  0  0  0  0  0  0  0  0  0  0  0
    0.0000    0.0000    0.0000 N   0  0  0  0  0  0  0  0  0  0  0  0
    0.0000    0.0000    0.0000 C   0  0  0  0  0  0  0  0  0  0  0  0
    0.0000    0.0000    0.0000 C   0  0  0  0  0  0  0  0  0  0  0  0
    0.0000    0.0000    0.0000 C   0  0  0  0  0  0  0  0  0  0  0  0
    0.0000    0.0000    0.0000 C   0  0  0  0  0  0  0  0  0  0  0  0
    0.0000    0.0000    0.0000 N   0  0  0  0  0  0  0  0  0  0  0  0
    0.0000    0.0000    0.0000 N   0  0  0  0  0  0  0  0  0  0  0  0
    0.0000    0.0000    0.0000 C   0  0  0  0  0  0  0  0  0  0  0  0
    0.0000    0.0000    0.0000 C   0  0  0  0  0  0  0  0  0  0  0  0
    0.0000    0.0000    0.0000 C   0  0  0  0  0  0  0  0  0  0  0  0
    0.0000    0.0000    0.0000 N   0  0  0  0  0  0  0  0  0  0  0  0
    0.0000    0.0000    0.0000 N   0  0  0  0  0  0  0  0  0  0  0  0
    0.0000    0.0000    0.0000 C   0  0  0  0  0  0  0  0  0  0  0  0
    0.0000    0.0000    0.0000 C   0  0  0  0  0  0  0  0  0  0  0  0
    0.0000    0.0000    0.0000 C   0  0  0  0  0  0  0  0  0  0  0  0
    0.0000    0.0000    0.0000 C   0  0  0  0  0  0  0  0  0  0  0  0
    0.0000    0.0000    0.0000 C   0  0  0  0  0  0  0  0  0  0  0  0
    0.0000    0.0000    0.0000 C   0  0  0  0  0  0  0  0  0  0  0  0
    0.0000    0.0000    0.0000 C   0  0  0  0  0  0  0  0  0  0  0  0
    0.0000    0.0000    0.0000 N   0  0  0  0  0  0  0  0  0  0  0  0
    0.0000    0.0000    0.0000 O   0  0  0  0  0  0  0  0  0  0  0  0
    0.0000    0.0000    0.0000 C   0  0  0  0  0  0  0  0  0  0  0  0
    0.0000    0.0000    0.0000 C   0  0  0  0  0  0  0  0  0  0  0  0
    0.0000    0.0000    0.0000 C   0  0  0  0  0  0  0  0  0  0  0  0
    0.0000    0.0000    0.0000 C   0  0  0  0  0  0  0  0  0  0  0  0
    0.0000    0.0000    0.0000 O   0  0  0  0  0  0  0  0  0  0  0  0
    0.0000    0.0000    0.0000 O   0  0  0  0  0  0  0  0  0  0  0  0
    0.0000    0.0000    0.0000 C   0  0  0  0  0  0  0  0  0  0  0  0
    0.0000    0.0000    0.0000 N   0  0  0  0  0  0  0  0  0  0  0  0
  1  2  2  0
  2  3  1  0
  2  4  1  0
  4  5  2  0
  4  6  1  0
  5  7  1  0
  8  6  2  0
  6  9  1  0
 10  7  1  0
  7 11  2  0
 11  8  1  0
  9 12  2  0
 13 10  1  0
 12 14  1  0
 12  3  1  0
 15 13  1  0
 16 15  2  0
 15 17  1  0
 18 16  1  0
 17 19  2  0
 20 18  2  0
 19 20  1  0
 21 20  1  0
 22 21  1  0
 21 23  2  0
 24 22  1  0
 25 24  1  0
 24 26  1  0
 27 25  1  0
 26 28  2  0
 26 29  1  0
 30 27  1  0
 31 30  1  0
M  END
>  <pIC50>  (170) 
5.07

>  <ChEMBL_ID>  (170) 
CHEMBL35231

>  <document_journal>  (170) 
J. Med. Chem.

>  <bao_endpoint>  (170) 
BAO_0000190

>  <potential_duplicate>  (170) 
False

>  <uo_units>  (170) 
UO_0000065

>  <canonical_smiles>  (170) 
NCCCC(NC(=O)c1ccc(NCc2cnc3nc(N)nc(O)c3c2)cc1)C(=O)O

>  <parent_molecule_chembl_id>  (170) 
CHEMBL35231

>  <assay_type>  (170) 
B

>  <src_id>  (170) 
1

>  <ligand_efficiency>  (170) 
{u'le': u'0.22', u'bei': u'11.92', u'sei': u'2.68', u'lle': u'7.01'}

>  <standard_flag>  (170) 
True

>  <molecule_chembl_id>  (170) 
CHEMBL35231

>  <target_organism>  (170) 
Homo sapiens

>  <standard_units>  (170) 
nM

>  <record_id>  (170) 
52090

>  <document_chembl_id>  (170) 
CHEMBL1125675

>  <bao_format>  (170) 
BAO_0000357

>  <data_validity_description>  (170) 
None

>  <activity_id>  (170) 
864970

>  <standard_type>  (170) 
IC50

>  <target_chembl_id>  (170) 
CHEMBL202

>  <data_validity_comment>  (170) 
None

>  <published_value>  (170) 
8.5

>  <document_year>  (170) 
1991

>  <target_pref_name>  (170) 
Dihydrofolate reductase

>  <assay_chembl_id>  (170) 
CHEMBL668433

>  <standard_relation>  (170) 
=

>  <assay_description>  (170) 
Inhibition of dihydrofolate reductase(DHFR) enzyme from human leukemic lymphoblasts.

>  <published_relation>  (170) 
=

>  <standard_value>  (170) 
8500

>  <qudt_units>  (170) 
http://www.openphacts.org/units/Nanomolar

>  <target_tax_id>  (170) 
9606

>  <bao_label>  (170) 
single protein format

>  <published_units>  (170) 
uM

>  <pchembl_value>  (170) 
5.07

>  <published_type>  (170) 
IC50

>  <activity_comment>  (170) 
None

$$$$

     RDKit          

 25 27  0  0  0  0  0  0  0  0999 V2000
    0.0000    0.0000    0.0000 C   0  0  0  0  0  0  0  0  0  0  0  0
    0.0000    0.0000    0.0000 C   0  0  0  0  0  0  0  0  0  0  0  0
    0.0000    0.0000    0.0000 C   0  0  0  0  0  0  0  0  0  0  0  0
    0.0000    0.0000    0.0000 C   0  0  0  0  0  0  0  0  0  0  0  0
    0.0000    0.0000    0.0000 N   0  0  0  0  0  0  0  0  0  0  0  0
    0.0000    0.0000    0.0000 C   0  0  0  0  0  0  0  0  0  0  0  0
    0.0000    0.0000    0.0000 C   0  0  0  0  0  0  0  0  0  0  0  0
    0.0000    0.0000    0.0000 C   0  0  0  0  0  0  0  0  0  0  0  0
    0.0000    0.0000    0.0000 C   0  0  0  0  0  0  0  0  0  0  0  0
    0.0000    0.0000    0.0000 O   0  0  0  0  0  0  0  0  0  0  0  0
    0.0000    0.0000    0.0000 C   0  0  0  0  0  0  0  0  0  0  0  0
    0.0000    0.0000    0.0000 F   0  0  0  0  0  0  0  0  0  0  0  0
    0.0000    0.0000    0.0000 F   0  0  0  0  0  0  0  0  0  0  0  0
    0.0000    0.0000    0.0000 C   0  0  0  0  0  0  0  0  0  0  0  0
    0.0000    0.0000    0.0000 C   0  0  0  0  0  0  0  0  0  0  0  0
    0.0000    0.0000    0.0000 C   0  0  0  0  0  0  0  0  0  0  0  0
    0.0000    0.0000    0.0000 N   0  0  0  0  0  0  0  0  0  0  0  0
    0.0000    0.0000    0.0000 C   0  0  0  0  0  0  0  0  0  0  0  0
    0.0000    0.0000    0.0000 N   0  0  0  0  0  0  0  0  0  0  0  0
    0.0000    0.0000    0.0000 C   0  0  0  0  0  0  0  0  0  0  0  0
    0.0000    0.0000    0.0000 N   0  0  0  0  0  0  0  0  0  0  0  0
    0.0000    0.0000    0.0000 N   0  0  0  0  0  0  0  0  0  0  0  0
    0.0000    0.0000    0.0000 C   0  0  0  0  0  0  0  0  0  0  0  0
    0.0000    0.0000    0.0000 N   0  0  0  0  0  0  0  0  0  0  0  0
    0.0000    0.0000    0.0000 C   0  0  0  0  0  0  0  0  0  0  0  0
  1  2  1  0
  2  3  2  0
  3  4  1  0
  4  5  1  0
  5  6  1  0
  6  7  2  0
  7  8  1  0
  8  9  2  0
  9 10  1  0
 10 11  1  0
 11 12  1  0
 11 13  1  0
  9 14  1  0
 14 15  2  0
  3 16  1  0
 16 17  2  0
 17 18  1  0
 18 19  2  0
 19 20  1  0
 20 21  1  0
 20 22  2  0
 22 23  1  0
 23 24  1  0
 23 25  2  0
 25  2  1  0
 15  6  1  0
 25 18  1  0
M  END
>  <pIC50>  (171) 
7.7

>  <ChEMBL_ID>  (171) 
CHEMBL345708

>  <document_journal>  (171) 
J. Med. Chem.

>  <bao_endpoint>  (171) 
BAO_0000190

>  <potential_duplicate>  (171) 
False

>  <uo_units>  (171) 
UO_0000065

>  <canonical_smiles>  (171) 
Cc1c(CNc2ccc(OC(F)F)cc2)cnc3nc(N)nc(N)c13

>  <parent_molecule_chembl_id>  (171) 
CHEMBL345708

>  <assay_type>  (171) 
B

>  <src_id>  (171) 
1

>  <ligand_efficiency>  (171) 
{u'le': u'0.42', u'bei': u'22.23', u'sei': u'6.88', u'lle': u'5.02'}

>  <standard_flag>  (171) 
True

>  <molecule_chembl_id>  (171) 
CHEMBL345708

>  <target_organism>  (171) 
Homo sapiens

>  <standard_units>  (171) 
nM

>  <record_id>  (171) 
292937

>  <document_chembl_id>  (171) 
CHEMBL1135401

>  <bao_format>  (171) 
BAO_0000357

>  <data_validity_description>  (171) 
None

>  <activity_id>  (171) 
867433

>  <standard_type>  (171) 
IC50

>  <target_chembl_id>  (171) 
CHEMBL202

>  <data_validity_comment>  (171) 
None

>  <published_value>  (171) 
20

>  <document_year>  (171) 
2002

>  <target_pref_name>  (171) 
Dihydrofolate reductase

>  <assay_chembl_id>  (171) 
CHEMBL669986

>  <standard_relation>  (171) 
=

>  <assay_description>  (171) 
Antimycobacterial activity against human dihydrofolate reductase (hDHFR)

>  <published_relation>  (171) 
=

>  <standard_value>  (171) 
20

>  <qudt_units>  (171) 
http://www.openphacts.org/units/Nanomolar

>  <target_tax_id>  (171) 
9606

>  <bao_label>  (171) 
single protein format

>  <published_units>  (171) 
nM

>  <pchembl_value>  (171) 
7.7

>  <published_type>  (171) 
IC50

>  <activity_comment>  (171) 
None

$$$$

     RDKit          

 23 25  0  0  0  0  0  0  0  0999 V2000
    0.0000    0.0000    0.0000 C   0  0  0  0  0  0  0  0  0  0  0  0
    0.0000    0.0000    0.0000 C   0  0  0  0  0  0  0  0  0  0  0  0
    0.0000    0.0000    0.0000 C   0  0  0  0  0  0  0  0  0  0  0  0
    0.0000    0.0000    0.0000 C   0  0  0  0  0  0  0  0  0  0  0  0
    0.0000    0.0000    0.0000 C   0  0  0  0  0  0  0  0  0  0  0  0
    0.0000    0.0000    0.0000 Cl  0  0  0  0  0  0  0  0  0  0  0  0
    0.0000    0.0000    0.0000 C   0  0  0  0  0  0  0  0  0  0  0  0
    0.0000    0.0000    0.0000 C   0  0  0  0  0  0  0  0  0  0  0  0
    0.0000    0.0000    0.0000 N   0  0  0  0  0  0  0  0  0  0  0  0
    0.0000    0.0000    0.0000 C   0  0  0  0  0  0  0  0  0  0  0  0
    0.0000    0.0000    0.0000 C   0  0  0  0  0  0  0  0  0  0  0  0
    0.0000    0.0000    0.0000 C   0  0  0  0  0  0  0  0  0  0  0  0
    0.0000    0.0000    0.0000 N   0  0  0  0  0  0  0  0  0  0  0  0
    0.0000    0.0000    0.0000 C   0  0  0  0  0  0  0  0  0  0  0  0
    0.0000    0.0000    0.0000 N   0  0  0  0  0  0  0  0  0  0  0  0
    0.0000    0.0000    0.0000 C   0  0  0  0  0  0  0  0  0  0  0  0
    0.0000    0.0000    0.0000 N   0  0  0  0  0  0  0  0  0  0  0  0
    0.0000    0.0000    0.0000 N   0  0  0  0  0  0  0  0  0  0  0  0
    0.0000    0.0000    0.0000 C   0  0  0  0  0  0  0  0  0  0  0  0
    0.0000    0.0000    0.0000 N   0  0  0  0  0  0  0  0  0  0  0  0
    0.0000    0.0000    0.0000 C   0  0  0  0  0  0  0  0  0  0  0  0
    0.0000    0.0000    0.0000 C   0  0  0  0  0  0  0  0  0  0  0  0
    0.0000    0.0000    0.0000 C   0  0  0  0  0  0  0  0  0  0  0  0
  1  2  1  0
  2  3  2  0
  3  4  1  0
  4  5  2  0
  5  6  1  0
  5  7  1  0
  7  8  2  0
  8  9  1  0
  9 10  1  0
 10 11  1  0
 11 12  2  0
 12 13  1  0
 13 14  2  0
 14 15  1  0
 15 16  2  0
 16 17  1  0
 16 18  1  0
 18 19  2  0
 19 20  1  0
 19 21  1  0
 21 22  2  0
 22 23  1  0
  8  2  1  0
 22 11  1  0
 21 14  1  0
M  END
>  <pIC50>  (172) 
8.22

>  <ChEMBL_ID>  (172) 
CHEMBL147256

>  <document_journal>  (172) 
J. Med. Chem.

>  <bao_endpoint>  (172) 
BAO_0000190

>  <potential_duplicate>  (172) 
False

>  <uo_units>  (172) 
UO_0000065

>  <canonical_smiles>  (172) 
Cc1ccc(Cl)cc1NCc2cnc3nc(N)nc(N)c3c2C

>  <parent_molecule_chembl_id>  (172) 
CHEMBL147256

>  <assay_type>  (172) 
B

>  <src_id>  (172) 
1

>  <ligand_efficiency>  (172) 
{u'le': u'0.49', u'bei': u'24.98', u'sei': u'8', u'lle': u'5.18'}

>  <standard_flag>  (172) 
True

>  <molecule_chembl_id>  (172) 
CHEMBL147256

>  <target_organism>  (172) 
Homo sapiens

>  <standard_units>  (172) 
nM

>  <record_id>  (172) 
292918

>  <document_chembl_id>  (172) 
CHEMBL1135401

>  <bao_format>  (172) 
BAO_0000357

>  <data_validity_description>  (172) 
None

>  <activity_id>  (172) 
867437

>  <standard_type>  (172) 
IC50

>  <target_chembl_id>  (172) 
CHEMBL202

>  <data_validity_comment>  (172) 
None

>  <published_value>  (172) 
6.1

>  <document_year>  (172) 
2002

>  <target_pref_name>  (172) 
Dihydrofolate reductase

>  <assay_chembl_id>  (172) 
CHEMBL669986

>  <standard_relation>  (172) 
=

>  <assay_description>  (172) 
Antimycobacterial activity against human dihydrofolate reductase (hDHFR)

>  <published_relation>  (172) 
=

>  <standard_value>  (172) 
6.1

>  <qudt_units>  (172) 
http://www.openphacts.org/units/Nanomolar

>  <target_tax_id>  (172) 
9606

>  <bao_label>  (172) 
single protein format

>  <published_units>  (172) 
nM

>  <pchembl_value>  (172) 
8.22

>  <published_type>  (172) 
IC50

>  <activity_comment>  (172) 
None

$$$$

     RDKit          

 24 26  0  0  0  0  0  0  0  0999 V2000
    0.0000    0.0000    0.0000 C   0  0  0  0  0  0  0  0  0  0  0  0
    0.0000    0.0000    0.0000 O   0  0  0  0  0  0  0  0  0  0  0  0
    0.0000    0.0000    0.0000 C   0  0  0  0  0  0  0  0  0  0  0  0
    0.0000    0.0000    0.0000 C   0  0  0  0  0  0  0  0  0  0  0  0
    0.0000    0.0000    0.0000 C   0  0  0  0  0  0  0  0  0  0  0  0
    0.0000    0.0000    0.0000 C   0  0  0  0  0  0  0  0  0  0  0  0
    0.0000    0.0000    0.0000 N   0  0  0  0  0  0  0  0  0  0  0  0
    0.0000    0.0000    0.0000 C   0  0  0  0  0  0  0  0  0  0  0  0
    0.0000    0.0000    0.0000 C   0  0  0  0  0  0  0  0  0  0  0  0
    0.0000    0.0000    0.0000 C   0  0  0  0  0  0  0  0  0  0  0  0
    0.0000    0.0000    0.0000 C   0  0  0  0  0  0  0  0  0  0  0  0
    0.0000    0.0000    0.0000 Cl  0  0  0  0  0  0  0  0  0  0  0  0
    0.0000    0.0000    0.0000 C   0  0  0  0  0  0  0  0  0  0  0  0
    0.0000    0.0000    0.0000 C   0  0  0  0  0  0  0  0  0  0  0  0
    0.0000    0.0000    0.0000 C   0  0  0  0  0  0  0  0  0  0  0  0
    0.0000    0.0000    0.0000 N   0  0  0  0  0  0  0  0  0  0  0  0
    0.0000    0.0000    0.0000 C   0  0  0  0  0  0  0  0  0  0  0  0
    0.0000    0.0000    0.0000 N   0  0  0  0  0  0  0  0  0  0  0  0
    0.0000    0.0000    0.0000 C   0  0  0  0  0  0  0  0  0  0  0  0
    0.0000    0.0000    0.0000 N   0  0  0  0  0  0  0  0  0  0  0  0
    0.0000    0.0000    0.0000 N   0  0  0  0  0  0  0  0  0  0  0  0
    0.0000    0.0000    0.0000 C   0  0  0  0  0  0  0  0  0  0  0  0
    0.0000    0.0000    0.0000 N   0  0  0  0  0  0  0  0  0  0  0  0
    0.0000    0.0000    0.0000 C   0  0  0  0  0  0  0  0  0  0  0  0
  1  2  1  0
  2  3  1  0
  3  4  1  0
  4  5  2  0
  5  6  1  0
  6  7  1  0
  7  8  1  0
  8  9  2  0
  9 10  1  0
 10 11  2  0
 11 12  1  0
 11 13  1  0
 13 14  2  0
  5 15  1  0
 15 16  2  0
 16 17  1  0
 17 18  2  0
 18 19  1  0
 19 20  1  0
 19 21  2  0
 21 22  1  0
 22 23  1  0
 22 24  2  0
 24  4  1  0
 14  8  1  0
 24 17  1  0
M  END
>  <pIC50>  (173) 
5.59

>  <ChEMBL_ID>  (173) 
CHEMBL345757

>  <document_journal>  (173) 
J. Med. Chem.

>  <bao_endpoint>  (173) 
BAO_0000190

>  <potential_duplicate>  (173) 
False

>  <uo_units>  (173) 
UO_0000065

>  <canonical_smiles>  (173) 
COCc1c(CNc2ccc(Cl)cc2)cnc3nc(N)nc(N)c13

>  <parent_molecule_chembl_id>  (173) 
CHEMBL345757

>  <assay_type>  (173) 
B

>  <src_id>  (173) 
1

>  <ligand_efficiency>  (173) 
{u'le': u'0.32', u'bei': u'16.2', u'sei': u'4.99', u'lle': u'3.73'}

>  <standard_flag>  (173) 
True

>  <molecule_chembl_id>  (173) 
CHEMBL345757

>  <target_organism>  (173) 
Homo sapiens

>  <standard_units>  (173) 
nM

>  <record_id>  (173) 
292895

>  <document_chembl_id>  (173) 
CHEMBL1135401

>  <bao_format>  (173) 
BAO_0000357

>  <data_validity_description>  (173) 
None

>  <activity_id>  (173) 
867441

>  <standard_type>  (173) 
IC50

>  <target_chembl_id>  (173) 
CHEMBL202

>  <data_validity_comment>  (173) 
None

>  <published_value>  (173) 
2600

>  <document_year>  (173) 
2002

>  <target_pref_name>  (173) 
Dihydrofolate reductase

>  <assay_chembl_id>  (173) 
CHEMBL669986

>  <standard_relation>  (173) 
=

>  <assay_description>  (173) 
Antimycobacterial activity against human dihydrofolate reductase (hDHFR)

>  <published_relation>  (173) 
=

>  <standard_value>  (173) 
2600

>  <qudt_units>  (173) 
http://www.openphacts.org/units/Nanomolar

>  <target_tax_id>  (173) 
9606

>  <bao_label>  (173) 
single protein format

>  <published_units>  (173) 
nM

>  <pchembl_value>  (173) 
5.59

>  <published_type>  (173) 
IC50

>  <activity_comment>  (173) 
None

$$$$

     RDKit          

 27 29  0  0  0  0  0  0  0  0999 V2000
    0.0000    0.0000    0.0000 C   0  0  0  0  0  0  0  0  0  0  0  0
    0.0000    0.0000    0.0000 C   0  0  0  0  0  0  0  0  0  0  0  0
    0.0000    0.0000    0.0000 O   0  0  0  0  0  0  0  0  0  0  0  0
    0.0000    0.0000    0.0000 C   0  0  0  0  0  0  0  0  0  0  0  0
    0.0000    0.0000    0.0000 C   0  0  0  0  0  0  0  0  0  0  0  0
    0.0000    0.0000    0.0000 C   0  0  0  0  0  0  0  0  0  0  0  0
    0.0000    0.0000    0.0000 C   0  0  0  0  0  0  0  0  0  0  0  0
    0.0000    0.0000    0.0000 O   0  0  0  0  0  0  0  0  0  0  0  0
    0.0000    0.0000    0.0000 C   0  0  0  0  0  0  0  0  0  0  0  0
    0.0000    0.0000    0.0000 C   0  0  0  0  0  0  0  0  0  0  0  0
    0.0000    0.0000    0.0000 C   0  0  0  0  0  0  0  0  0  0  0  0
    0.0000    0.0000    0.0000 N   0  0  0  0  0  0  0  0  0  0  0  0
    0.0000    0.0000    0.0000 C   0  0  0  0  0  0  0  0  0  0  0  0
    0.0000    0.0000    0.0000 C   0  0  0  0  0  0  0  0  0  0  0  0
    0.0000    0.0000    0.0000 C   0  0  0  0  0  0  0  0  0  0  0  0
    0.0000    0.0000    0.0000 N   0  0  0  0  0  0  0  0  0  0  0  0
    0.0000    0.0000    0.0000 C   0  0  0  0  0  0  0  0  0  0  0  0
    0.0000    0.0000    0.0000 N   0  0  0  0  0  0  0  0  0  0  0  0
    0.0000    0.0000    0.0000 C   0  0  0  0  0  0  0  0  0  0  0  0
    0.0000    0.0000    0.0000 N   0  0  0  0  0  0  0  0  0  0  0  0
    0.0000    0.0000    0.0000 N   0  0  0  0  0  0  0  0  0  0  0  0
    0.0000    0.0000    0.0000 C   0  0  0  0  0  0  0  0  0  0  0  0
    0.0000    0.0000    0.0000 N   0  0  0  0  0  0  0  0  0  0  0  0
    0.0000    0.0000    0.0000 C   0  0  0  0  0  0  0  0  0  0  0  0
    0.0000    0.0000    0.0000 C   0  0  0  0  0  0  0  0  0  0  0  0
    0.0000    0.0000    0.0000 C   0  0  0  0  0  0  0  0  0  0  0  0
    0.0000    0.0000    0.0000 C   0  0  0  0  0  0  0  0  0  0  0  0
  1  2  1  0
  2  3  1  0
  3  4  1  0
  4  5  2  0
  5  6  1  0
  6  7  2  0
  7  8  1  0
  8  9  1  0
  9 10  1  0
  7 11  1  0
 11 12  1  0
 12 13  1  0
 13 14  1  0
 14 15  2  0
 15 16  1  0
 16 17  2  0
 17 18  1  0
 18 19  2  0
 19 20  1  0
 19 21  1  0
 21 22  2  0
 22 23  1  0
 22 24  1  0
 24 25  2  0
 25 26  1  0
 11 27  2  0
 27  4  1  0
 25 14  1  0
 24 17  1  0
M  END
>  <pIC50>  (174) 
5.64

>  <ChEMBL_ID>  (174) 
CHEMBL279679

>  <document_journal>  (174) 
J. Med. Chem.

>  <bao_endpoint>  (174) 
BAO_0000190

>  <potential_duplicate>  (174) 
False

>  <uo_units>  (174) 
UO_0000065

>  <canonical_smiles>  (174) 
CCOc1ccc(OCC)c(NCc2cnc3nc(N)nc(N)c3c2C)c1

>  <parent_molecule_chembl_id>  (174) 
CHEMBL279679

>  <assay_type>  (174) 
B

>  <src_id>  (174) 
1

>  <ligand_efficiency>  (174) 
{u'le': u'0.29', u'bei': u'15.3', u'sei': u'4.65', u'lle': u'3.1'}

>  <standard_flag>  (174) 
True

>  <molecule_chembl_id>  (174) 
CHEMBL279679

>  <target_organism>  (174) 
Homo sapiens

>  <standard_units>  (174) 
nM

>  <record_id>  (174) 
292866

>  <document_chembl_id>  (174) 
CHEMBL1135401

>  <bao_format>  (174) 
BAO_0000357

>  <data_validity_description>  (174) 
None

>  <activity_id>  (174) 
869985

>  <standard_type>  (174) 
IC50

>  <target_chembl_id>  (174) 
CHEMBL202

>  <data_validity_comment>  (174) 
None

>  <published_value>  (174) 
2300

>  <document_year>  (174) 
2002

>  <target_pref_name>  (174) 
Dihydrofolate reductase

>  <assay_chembl_id>  (174) 
CHEMBL669986

>  <standard_relation>  (174) 
=

>  <assay_description>  (174) 
Antimycobacterial activity against human dihydrofolate reductase (hDHFR)

>  <published_relation>  (174) 
=

>  <standard_value>  (174) 
2300

>  <qudt_units>  (174) 
http://www.openphacts.org/units/Nanomolar

>  <target_tax_id>  (174) 
9606

>  <bao_label>  (174) 
single protein format

>  <published_units>  (174) 
nM

>  <pchembl_value>  (174) 
5.64

>  <published_type>  (174) 
IC50

>  <activity_comment>  (174) 
None

$$$$

     RDKit          

 24 26  0  0  0  0  0  0  0  0999 V2000
    0.0000    0.0000    0.0000 C   0  0  0  0  0  0  0  0  0  0  0  0
    0.0000    0.0000    0.0000 C   0  0  0  0  0  0  0  0  0  0  0  0
    0.0000    0.0000    0.0000 C   0  0  0  0  0  0  0  0  0  0  0  0
    0.0000    0.0000    0.0000 C   0  0  0  0  0  0  0  0  0  0  0  0
    0.0000    0.0000    0.0000 Br  0  0  0  0  0  0  0  0  0  0  0  0
    0.0000    0.0000    0.0000 C   0  0  0  0  0  0  0  0  0  0  0  0
    0.0000    0.0000    0.0000 C   0  0  0  0  0  0  0  0  0  0  0  0
    0.0000    0.0000    0.0000 C   0  0  0  0  0  0  0  0  0  0  0  0
    0.0000    0.0000    0.0000 C   0  0  0  0  0  0  0  0  0  0  0  0
    0.0000    0.0000    0.0000 N   0  0  0  0  0  0  0  0  0  0  0  0
    0.0000    0.0000    0.0000 C   0  0  0  0  0  0  0  0  0  0  0  0
    0.0000    0.0000    0.0000 C   0  0  0  0  0  0  0  0  0  0  0  0
    0.0000    0.0000    0.0000 C   0  0  0  0  0  0  0  0  0  0  0  0
    0.0000    0.0000    0.0000 N   0  0  0  0  0  0  0  0  0  0  0  0
    0.0000    0.0000    0.0000 C   0  0  0  0  0  0  0  0  0  0  0  0
    0.0000    0.0000    0.0000 N   0  0  0  0  0  0  0  0  0  0  0  0
    0.0000    0.0000    0.0000 C   0  0  0  0  0  0  0  0  0  0  0  0
    0.0000    0.0000    0.0000 N   0  0  0  0  0  0  0  0  0  0  0  0
    0.0000    0.0000    0.0000 N   0  0  0  0  0  0  0  0  0  0  0  0
    0.0000    0.0000    0.0000 C   0  0  0  0  0  0  0  0  0  0  0  0
    0.0000    0.0000    0.0000 N   0  0  0  0  0  0  0  0  0  0  0  0
    0.0000    0.0000    0.0000 C   0  0  0  0  0  0  0  0  0  0  0  0
    0.0000    0.0000    0.0000 C   0  0  0  0  0  0  0  0  0  0  0  0
    0.0000    0.0000    0.0000 C   0  0  0  0  0  0  0  0  0  0  0  0
  1  2  1  0
  2  3  2  0
  3  4  1  0
  4  5  1  0
  4  6  2  0
  6  7  1  0
  7  8  1  0
  7  9  2  0
  9 10  1  0
 10 11  1  0
 11 12  1  0
 12 13  2  0
 13 14  1  0
 14 15  2  0
 15 16  1  0
 16 17  2  0
 17 18  1  0
 17 19  1  0
 19 20  2  0
 20 21  1  0
 20 22  1  0
 22 23  2  0
 23 24  1  0
  9  2  1  0
 23 12  1  0
 22 15  1  0
M  END
>  <pIC50>  (175) 
5.72

>  <ChEMBL_ID>  (175) 
CHEMBL147006

>  <document_journal>  (175) 
J. Med. Chem.

>  <bao_endpoint>  (175) 
BAO_0000190

>  <potential_duplicate>  (175) 
False

>  <uo_units>  (175) 
UO_0000065

>  <canonical_smiles>  (175) 
Cc1cc(Br)cc(C)c1NCc2cnc3nc(N)nc(N)c3c2C

>  <parent_molecule_chembl_id>  (175) 
CHEMBL147006

>  <assay_type>  (175) 
B

>  <src_id>  (175) 
1

>  <ligand_efficiency>  (175) 
{u'le': u'0.33', u'bei': u'14.77', u'sei': u'5.57', u'lle': u'2.12'}

>  <standard_flag>  (175) 
True

>  <molecule_chembl_id>  (175) 
CHEMBL147006

>  <target_organism>  (175) 
Homo sapiens

>  <standard_units>  (175) 
nM

>  <record_id>  (175) 
292870

>  <document_chembl_id>  (175) 
CHEMBL1135401

>  <bao_format>  (175) 
BAO_0000357

>  <data_validity_description>  (175) 
None

>  <activity_id>  (175) 
869989

>  <standard_type>  (175) 
IC50

>  <target_chembl_id>  (175) 
CHEMBL202

>  <data_validity_comment>  (175) 
None

>  <published_value>  (175) 
1900

>  <document_year>  (175) 
2002

>  <target_pref_name>  (175) 
Dihydrofolate reductase

>  <assay_chembl_id>  (175) 
CHEMBL669986

>  <standard_relation>  (175) 
=

>  <assay_description>  (175) 
Antimycobacterial activity against human dihydrofolate reductase (hDHFR)

>  <published_relation>  (175) 
=

>  <standard_value>  (175) 
1900

>  <qudt_units>  (175) 
http://www.openphacts.org/units/Nanomolar

>  <target_tax_id>  (175) 
9606

>  <bao_label>  (175) 
single protein format

>  <published_units>  (175) 
nM

>  <pchembl_value>  (175) 
5.72

>  <published_type>  (175) 
IC50

>  <activity_comment>  (175) 
None

$$$$

     RDKit          

 21 23  0  0  0  0  0  0  0  0999 V2000
    0.0000    0.0000    0.0000 N   0  0  0  0  0  0  0  0  0  0  0  0
    0.0000    0.0000    0.0000 C   0  0  0  0  0  0  0  0  0  0  0  0
    0.0000    0.0000    0.0000 N   0  0  0  0  0  0  0  0  0  0  0  0
    0.0000    0.0000    0.0000 C   0  0  0  0  0  0  0  0  0  0  0  0
    0.0000    0.0000    0.0000 N   0  0  0  0  0  0  0  0  0  0  0  0
    0.0000    0.0000    0.0000 C   0  0  0  0  0  0  0  0  0  0  0  0
    0.0000    0.0000    0.0000 C   0  0  0  0  0  0  0  0  0  0  0  0
    0.0000    0.0000    0.0000 C   0  0  0  0  0  0  0  0  0  0  0  0
    0.0000    0.0000    0.0000 C   0  0  0  0  0  0  0  0  0  0  0  0
    0.0000    0.0000    0.0000 N   0  0  0  0  0  0  0  0  0  0  0  0
    0.0000    0.0000    0.0000 C   0  0  0  0  0  0  0  0  0  0  0  0
    0.0000    0.0000    0.0000 C   0  0  0  0  0  0  0  0  0  0  0  0
    0.0000    0.0000    0.0000 C   0  0  0  0  0  0  0  0  0  0  0  0
    0.0000    0.0000    0.0000 C   0  0  0  0  0  0  0  0  0  0  0  0
    0.0000    0.0000    0.0000 Cl  0  0  0  0  0  0  0  0  0  0  0  0
    0.0000    0.0000    0.0000 C   0  0  0  0  0  0  0  0  0  0  0  0
    0.0000    0.0000    0.0000 C   0  0  0  0  0  0  0  0  0  0  0  0
    0.0000    0.0000    0.0000 C   0  0  0  0  0  0  0  0  0  0  0  0
    0.0000    0.0000    0.0000 N   0  0  0  0  0  0  0  0  0  0  0  0
    0.0000    0.0000    0.0000 C   0  0  0  0  0  0  0  0  0  0  0  0
    0.0000    0.0000    0.0000 N   0  0  0  0  0  0  0  0  0  0  0  0
  1  2  1  0
  2  3  2  0
  3  4  1  0
  4  5  1  0
  4  6  2  0
  6  7  1  0
  7  8  2  0
  8  9  1  0
  9 10  1  0
 10 11  1  0
 11 12  2  0
 12 13  1  0
 13 14  2  0
 14 15  1  0
 14 16  1  0
 16 17  2  0
  8 18  1  0
 18 19  2  0
 19 20  1  0
 20 21  2  0
 21  2  1  0
 20  6  1  0
 17 11  1  0
M  END
>  <pIC50>  (176) 
6.17

>  <ChEMBL_ID>  (176) 
CHEMBL23492

>  <document_journal>  (176) 
J. Med. Chem.

>  <bao_endpoint>  (176) 
BAO_0000190

>  <potential_duplicate>  (176) 
False

>  <uo_units>  (176) 
UO_0000065

>  <canonical_smiles>  (176) 
Nc1nc(N)c2cc(CNc3ccc(Cl)cc3)cnc2n1

>  <parent_molecule_chembl_id>  (176) 
CHEMBL23492

>  <assay_type>  (176) 
B

>  <src_id>  (176) 
1

>  <ligand_efficiency>  (176) 
{u'le': u'0.4', u'bei': u'20.53', u'sei': u'6.01', u'lle': u'4.11'}

>  <standard_flag>  (176) 
True

>  <molecule_chembl_id>  (176) 
CHEMBL23492

>  <target_organism>  (176) 
Homo sapiens

>  <standard_units>  (176) 
nM

>  <record_id>  (176) 
292920

>  <document_chembl_id>  (176) 
CHEMBL1135401

>  <bao_format>  (176) 
BAO_0000357

>  <data_validity_description>  (176) 
None

>  <activity_id>  (176) 
869993

>  <standard_type>  (176) 
IC50

>  <target_chembl_id>  (176) 
CHEMBL202

>  <data_validity_comment>  (176) 
None

>  <published_value>  (176) 
670

>  <document_year>  (176) 
2002

>  <target_pref_name>  (176) 
Dihydrofolate reductase

>  <assay_chembl_id>  (176) 
CHEMBL669986

>  <standard_relation>  (176) 
=

>  <assay_description>  (176) 
Antimycobacterial activity against human dihydrofolate reductase (hDHFR)

>  <published_relation>  (176) 
=

>  <standard_value>  (176) 
670

>  <qudt_units>  (176) 
http://www.openphacts.org/units/Nanomolar

>  <target_tax_id>  (176) 
9606

>  <bao_label>  (176) 
single protein format

>  <published_units>  (176) 
nM

>  <pchembl_value>  (176) 
6.17

>  <published_type>  (176) 
IC50

>  <activity_comment>  (176) 
None

$$$$

     RDKit          

 28 32  0  0  0  0  0  0  0  0999 V2000
    0.0000    0.0000    0.0000 C   0  0  0  0  0  0  0  0  0  0  0  0
    0.0000    0.0000    0.0000 C   0  0  0  0  0  0  0  0  0  0  0  0
    0.0000    0.0000    0.0000 C   0  0  0  0  0  0  0  0  0  0  0  0
    0.0000    0.0000    0.0000 C   0  0  0  0  0  0  0  0  0  0  0  0
    0.0000    0.0000    0.0000 N   0  0  0  0  0  0  0  0  0  0  0  0
    0.0000    0.0000    0.0000 C   0  0  0  0  0  0  0  0  0  0  0  0
    0.0000    0.0000    0.0000 C   0  0  0  0  0  0  0  0  0  0  0  0
    0.0000    0.0000    0.0000 C   0  0  0  0  0  0  0  0  0  0  0  0
    0.0000    0.0000    0.0000 C   0  0  0  0  0  0  0  0  0  0  0  0
    0.0000    0.0000    0.0000 C   0  0  0  0  0  0  0  0  0  0  0  0
    0.0000    0.0000    0.0000 C   0  0  0  0  0  0  0  0  0  0  0  0
    0.0000    0.0000    0.0000 C   0  0  0  0  0  0  0  0  0  0  0  0
    0.0000    0.0000    0.0000 C   0  0  0  0  0  0  0  0  0  0  0  0
    0.0000    0.0000    0.0000 C   0  0  0  0  0  0  0  0  0  0  0  0
    0.0000    0.0000    0.0000 C   0  0  0  0  0  0  0  0  0  0  0  0
    0.0000    0.0000    0.0000 C   0  0  0  0  0  0  0  0  0  0  0  0
    0.0000    0.0000    0.0000 C   0  0  0  0  0  0  0  0  0  0  0  0
    0.0000    0.0000    0.0000 C   0  0  0  0  0  0  0  0  0  0  0  0
    0.0000    0.0000    0.0000 C   0  0  0  0  0  0  0  0  0  0  0  0
    0.0000    0.0000    0.0000 N   0  0  0  0  0  0  0  0  0  0  0  0
    0.0000    0.0000    0.0000 C   0  0  0  0  0  0  0  0  0  0  0  0
    0.0000    0.0000    0.0000 N   0  0  0  0  0  0  0  0  0  0  0  0
    0.0000    0.0000    0.0000 C   0  0  0  0  0  0  0  0  0  0  0  0
    0.0000    0.0000    0.0000 N   0  0  0  0  0  0  0  0  0  0  0  0
    0.0000    0.0000    0.0000 N   0  0  0  0  0  0  0  0  0  0  0  0
    0.0000    0.0000    0.0000 C   0  0  0  0  0  0  0  0  0  0  0  0
    0.0000    0.0000    0.0000 N   0  0  0  0  0  0  0  0  0  0  0  0
    0.0000    0.0000    0.0000 C   0  0  0  0  0  0  0  0  0  0  0  0
  1  2  1  0
  2  3  2  0
  3  4  1  0
  4  5  1  0
  5  6  1  0
  6  7  1  0
  7  8  2  0
  8  9  1  0
  9 10  2  0
 10 11  1  0
 11 12  2  0
 12 13  1  0
 13 14  2  0
 14 15  1  0
 15 16  2  0
 16 17  1  0
 17 18  2  0
  3 19  1  0
 19 20  2  0
 20 21  1  0
 21 22  2  0
 22 23  1  0
 23 24  1  0
 23 25  2  0
 25 26  1  0
 26 27  1  0
 26 28  2  0
 28  2  1  0
 18  6  1  0
 12  7  1  0
 18 13  1  0
 28 21  1  0
M  END
>  <pIC50>  (177) 
5.28

>  <ChEMBL_ID>  (177) 
CHEMBL151611

>  <document_journal>  (177) 
J. Med. Chem.

>  <bao_endpoint>  (177) 
BAO_0000190

>  <potential_duplicate>  (177) 
False

>  <uo_units>  (177) 
UO_0000065

>  <canonical_smiles>  (177) 
Cc1c(CNC2c3ccccc3c4ccccc24)cnc5nc(N)nc(N)c15

>  <parent_molecule_chembl_id>  (177) 
CHEMBL151611

>  <assay_type>  (177) 
B

>  <src_id>  (177) 
1

>  <ligand_efficiency>  (177) 
{u'le': u'0.26', u'bei': u'14.32', u'sei': u'5.14', u'lle': u'2.37'}

>  <standard_flag>  (177) 
True

>  <molecule_chembl_id>  (177) 
CHEMBL151611

>  <target_organism>  (177) 
Homo sapiens

>  <standard_units>  (177) 
nM

>  <record_id>  (177) 
292915

>  <document_chembl_id>  (177) 
CHEMBL1135401

>  <bao_format>  (177) 
BAO_0000357

>  <data_validity_description>  (177) 
None

>  <activity_id>  (177) 
869997

>  <standard_type>  (177) 
IC50

>  <target_chembl_id>  (177) 
CHEMBL202

>  <data_validity_comment>  (177) 
None

>  <published_value>  (177) 
5300

>  <document_year>  (177) 
2002

>  <target_pref_name>  (177) 
Dihydrofolate reductase

>  <assay_chembl_id>  (177) 
CHEMBL669986

>  <standard_relation>  (177) 
=

>  <assay_description>  (177) 
Antimycobacterial activity against human dihydrofolate reductase (hDHFR)

>  <published_relation>  (177) 
=

>  <standard_value>  (177) 
5300

>  <qudt_units>  (177) 
http://www.openphacts.org/units/Nanomolar

>  <target_tax_id>  (177) 
9606

>  <bao_label>  (177) 
single protein format

>  <published_units>  (177) 
nM

>  <pchembl_value>  (177) 
5.28

>  <published_type>  (177) 
IC50

>  <activity_comment>  (177) 
None

$$$$

     RDKit          

 24 26  0  0  0  0  0  0  0  0999 V2000
    0.0000    0.0000    0.0000 C   0  0  0  0  0  0  0  0  0  0  0  0
    0.0000    0.0000    0.0000 O   0  0  0  0  0  0  0  0  0  0  0  0
    0.0000    0.0000    0.0000 C   0  0  0  0  0  0  0  0  0  0  0  0
    0.0000    0.0000    0.0000 C   0  0  0  0  0  0  0  0  0  0  0  0
    0.0000    0.0000    0.0000 C   0  0  0  0  0  0  0  0  0  0  0  0
    0.0000    0.0000    0.0000 C   0  0  0  0  0  0  0  0  0  0  0  0
    0.0000    0.0000    0.0000 C   0  0  0  0  0  0  0  0  0  0  0  0
    0.0000    0.0000    0.0000 C   0  0  0  0  0  0  0  0  0  0  0  0
    0.0000    0.0000    0.0000 N   0  0  0  0  0  0  0  0  0  0  0  0
    0.0000    0.0000    0.0000 C   0  0  0  0  0  0  0  0  0  0  0  0
    0.0000    0.0000    0.0000 C   0  0  0  0  0  0  0  0  0  0  0  0
    0.0000    0.0000    0.0000 C   0  0  0  0  0  0  0  0  0  0  0  0
    0.0000    0.0000    0.0000 N   0  0  0  0  0  0  0  0  0  0  0  0
    0.0000    0.0000    0.0000 C   0  0  0  0  0  0  0  0  0  0  0  0
    0.0000    0.0000    0.0000 N   0  0  0  0  0  0  0  0  0  0  0  0
    0.0000    0.0000    0.0000 C   0  0  0  0  0  0  0  0  0  0  0  0
    0.0000    0.0000    0.0000 N   0  0  0  0  0  0  0  0  0  0  0  0
    0.0000    0.0000    0.0000 N   0  0  0  0  0  0  0  0  0  0  0  0
    0.0000    0.0000    0.0000 C   0  0  0  0  0  0  0  0  0  0  0  0
    0.0000    0.0000    0.0000 N   0  0  0  0  0  0  0  0  0  0  0  0
    0.0000    0.0000    0.0000 C   0  0  0  0  0  0  0  0  0  0  0  0
    0.0000    0.0000    0.0000 C   0  0  0  0  0  0  0  0  0  0  0  0
    0.0000    0.0000    0.0000 C   0  0  0  0  0  0  0  0  0  0  0  0
    0.0000    0.0000    0.0000 C   0  0  0  0  0  0  0  0  0  0  0  0
  1  2  1  0
  2  3  1  0
  3  4  2  0
  4  5  1  0
  5  6  2  0
  6  7  1  0
  6  8  1  0
  8  9  1  0
  9 10  1  0
 10 11  1  0
 11 12  2  0
 12 13  1  0
 13 14  2  0
 14 15  1  0
 15 16  2  0
 16 17  1  0
 16 18  1  0
 18 19  2  0
 19 20  1  0
 19 21  1  0
 21 22  2  0
 22 23  1  0
  8 24  2  0
 24  3  1  0
 22 11  1  0
 21 14  1  0
M  END
>  <pIC50>  (178) 
6.82

>  <ChEMBL_ID>  (178) 
CHEMBL23713

>  <document_journal>  (178) 
J. Med. Chem.

>  <bao_endpoint>  (178) 
BAO_0000190

>  <potential_duplicate>  (178) 
False

>  <uo_units>  (178) 
UO_0000065

>  <canonical_smiles>  (178) 
COc1ccc(C)c(NCc2cnc3nc(N)nc(N)c3c2C)c1

>  <parent_molecule_chembl_id>  (178) 
CHEMBL23713

>  <assay_type>  (178) 
B

>  <src_id>  (178) 
1

>  <ligand_efficiency>  (178) 
{u'le': u'0.39', u'bei': u'21.04', u'sei': u'6.09', u'lle': u'4.47'}

>  <standard_flag>  (178) 
True

>  <molecule_chembl_id>  (178) 
CHEMBL23713

>  <target_organism>  (178) 
Homo sapiens

>  <standard_units>  (178) 
nM

>  <record_id>  (178) 
292867

>  <document_chembl_id>  (178) 
CHEMBL1135401

>  <bao_format>  (178) 
BAO_0000357

>  <data_validity_description>  (178) 
None

>  <activity_id>  (178) 
871209

>  <standard_type>  (178) 
IC50

>  <target_chembl_id>  (178) 
CHEMBL202

>  <data_validity_comment>  (178) 
None

>  <published_value>  (178) 
150

>  <document_year>  (178) 
2002

>  <target_pref_name>  (178) 
Dihydrofolate reductase

>  <assay_chembl_id>  (178) 
CHEMBL669986

>  <standard_relation>  (178) 
=

>  <assay_description>  (178) 
Antimycobacterial activity against human dihydrofolate reductase (hDHFR)

>  <published_relation>  (178) 
=

>  <standard_value>  (178) 
150

>  <qudt_units>  (178) 
http://www.openphacts.org/units/Nanomolar

>  <target_tax_id>  (178) 
9606

>  <bao_label>  (178) 
single protein format

>  <published_units>  (178) 
nM

>  <pchembl_value>  (178) 
6.82

>  <published_type>  (178) 
IC50

>  <activity_comment>  (178) 
None

$$$$

     RDKit          

 23 25  0  0  0  0  0  0  0  0999 V2000
    0.0000    0.0000    0.0000 C   0  0  0  0  0  0  0  0  0  0  0  0
    0.0000    0.0000    0.0000 C   0  0  0  0  0  0  0  0  0  0  0  0
    0.0000    0.0000    0.0000 C   0  0  0  0  0  0  0  0  0  0  0  0
    0.0000    0.0000    0.0000 C   0  0  0  0  0  0  0  0  0  0  0  0
    0.0000    0.0000    0.0000 C   0  0  0  0  0  0  0  0  0  0  0  0
    0.0000    0.0000    0.0000 C   0  0  0  0  0  0  0  0  0  0  0  0
    0.0000    0.0000    0.0000 C   0  0  0  0  0  0  0  0  0  0  0  0
    0.0000    0.0000    0.0000 N   0  0  0  0  0  0  0  0  0  0  0  0
    0.0000    0.0000    0.0000 C   0  0  0  0  0  0  0  0  0  0  0  0
    0.0000    0.0000    0.0000 C   0  0  0  0  0  0  0  0  0  0  0  0
    0.0000    0.0000    0.0000 C   0  0  0  0  0  0  0  0  0  0  0  0
    0.0000    0.0000    0.0000 N   0  0  0  0  0  0  0  0  0  0  0  0
    0.0000    0.0000    0.0000 C   0  0  0  0  0  0  0  0  0  0  0  0
    0.0000    0.0000    0.0000 N   0  0  0  0  0  0  0  0  0  0  0  0
    0.0000    0.0000    0.0000 C   0  0  0  0  0  0  0  0  0  0  0  0
    0.0000    0.0000    0.0000 N   0  0  0  0  0  0  0  0  0  0  0  0
    0.0000    0.0000    0.0000 N   0  0  0  0  0  0  0  0  0  0  0  0
    0.0000    0.0000    0.0000 C   0  0  0  0  0  0  0  0  0  0  0  0
    0.0000    0.0000    0.0000 N   0  0  0  0  0  0  0  0  0  0  0  0
    0.0000    0.0000    0.0000 C   0  0  0  0  0  0  0  0  0  0  0  0
    0.0000    0.0000    0.0000 C   0  0  0  0  0  0  0  0  0  0  0  0
    0.0000    0.0000    0.0000 C   0  0  0  0  0  0  0  0  0  0  0  0
    0.0000    0.0000    0.0000 C   0  0  0  0  0  0  0  0  0  0  0  0
  1  2  1  0
  2  3  2  0
  3  4  1  0
  4  5  2  0
  5  6  1  0
  5  7  1  0
  7  8  1  0
  8  9  1  0
  9 10  1  0
 10 11  2  0
 11 12  1  0
 12 13  2  0
 13 14  1  0
 14 15  2  0
 15 16  1  0
 15 17  1  0
 17 18  2  0
 18 19  1  0
 18 20  1  0
 20 21  2  0
 21 22  1  0
  7 23  2  0
 23  2  1  0
 21 10  1  0
 20 13  1  0
M  END
>  <pIC50>  (179) 
7.24

>  <ChEMBL_ID>  (179) 
CHEMBL23383

>  <document_journal>  (179) 
J. Med. Chem.

>  <bao_endpoint>  (179) 
BAO_0000190

>  <potential_duplicate>  (179) 
False

>  <uo_units>  (179) 
UO_0000065

>  <canonical_smiles>  (179) 
Cc1ccc(C)c(NCc2cnc3nc(N)nc(N)c3c2C)c1

>  <parent_molecule_chembl_id>  (179) 
CHEMBL23383

>  <assay_type>  (179) 
B

>  <src_id>  (179) 
1

>  <ligand_efficiency>  (179) 
{u'le': u'0.43', u'bei': u'23.49', u'sei': u'7.05', u'lle': u'4.39'}

>  <standard_flag>  (179) 
True

>  <molecule_chembl_id>  (179) 
CHEMBL23383

>  <target_organism>  (179) 
Homo sapiens

>  <standard_units>  (179) 
nM

>  <record_id>  (179) 
292927

>  <document_chembl_id>  (179) 
CHEMBL1135401

>  <bao_format>  (179) 
BAO_0000357

>  <data_validity_description>  (179) 
None

>  <activity_id>  (179) 
871213

>  <standard_type>  (179) 
IC50

>  <target_chembl_id>  (179) 
CHEMBL202

>  <data_validity_comment>  (179) 
None

>  <published_value>  (179) 
57

>  <document_year>  (179) 
2002

>  <target_pref_name>  (179) 
Dihydrofolate reductase

>  <assay_chembl_id>  (179) 
CHEMBL669986

>  <standard_relation>  (179) 
=

>  <assay_description>  (179) 
Antimycobacterial activity against human dihydrofolate reductase (hDHFR)

>  <published_relation>  (179) 
=

>  <standard_value>  (179) 
57

>  <qudt_units>  (179) 
http://www.openphacts.org/units/Nanomolar

>  <target_tax_id>  (179) 
9606

>  <bao_label>  (179) 
single protein format

>  <published_units>  (179) 
nM

>  <pchembl_value>  (179) 
7.24

>  <published_type>  (179) 
IC50

>  <activity_comment>  (179) 
None

$$$$

     RDKit          

 24 26  0  0  0  0  0  0  0  0999 V2000
    0.0000    0.0000    0.0000 C   0  0  0  0  0  0  0  0  0  0  0  0
    0.0000    0.0000    0.0000 C   0  0  0  0  0  0  0  0  0  0  0  0
    0.0000    0.0000    0.0000 C   0  0  0  0  0  0  0  0  0  0  0  0
    0.0000    0.0000    0.0000 C   0  0  0  0  0  0  0  0  0  0  0  0
    0.0000    0.0000    0.0000 N   0  0  0  0  0  0  0  0  0  0  0  0
    0.0000    0.0000    0.0000 C   0  0  0  0  0  0  0  0  0  0  0  0
    0.0000    0.0000    0.0000 C   0  0  0  0  0  0  0  0  0  0  0  0
    0.0000    0.0000    0.0000 C   0  0  0  0  0  0  0  0  0  0  0  0
    0.0000    0.0000    0.0000 N   0  0  0  0  0  0  0  0  0  0  0  0
    0.0000    0.0000    0.0000 C   0  0  0  0  0  0  0  0  0  0  0  0
    0.0000    0.0000    0.0000 N   0  0  0  0  0  0  0  0  0  0  0  0
    0.0000    0.0000    0.0000 C   0  0  0  0  0  0  0  0  0  0  0  0
    0.0000    0.0000    0.0000 N   0  0  0  0  0  0  0  0  0  0  0  0
    0.0000    0.0000    0.0000 N   0  0  0  0  0  0  0  0  0  0  0  0
    0.0000    0.0000    0.0000 C   0  0  0  0  0  0  0  0  0  0  0  0
    0.0000    0.0000    0.0000 N   0  0  0  0  0  0  0  0  0  0  0  0
    0.0000    0.0000    0.0000 C   0  0  0  0  0  0  0  0  0  0  0  0
    0.0000    0.0000    0.0000 C   0  0  0  0  0  0  0  0  0  0  0  0
    0.0000    0.0000    0.0000 C   0  0  0  0  0  0  0  0  0  0  0  0
    0.0000    0.0000    0.0000 C   0  0  0  0  0  0  0  0  0  0  0  0
    0.0000    0.0000    0.0000 Cl  0  0  0  0  0  0  0  0  0  0  0  0
    0.0000    0.0000    0.0000 C   0  0  0  0  0  0  0  0  0  0  0  0
    0.0000    0.0000    0.0000 C   0  0  0  0  0  0  0  0  0  0  0  0
    0.0000    0.0000    0.0000 F   0  0  0  0  0  0  0  0  0  0  0  0
  1  2  1  0
  2  3  2  0
  3  4  1  0
  4  5  1  0
  5  6  1  0
  6  7  1  0
  7  8  2  0
  8  9  1  0
  9 10  2  0
 10 11  1  0
 11 12  2  0
 12 13  1  0
 12 14  1  0
 14 15  2  0
 15 16  1  0
 15 17  1  0
 17 18  2  0
 18 19  1  0
  4 20  2  0
 20 21  1  0
 20 22  1  0
 22 23  2  0
 23 24  1  0
 23  2  1  0
 18  7  1  0
 17 10  1  0
M  END
>  <pIC50>  (180) 
7.48

>  <ChEMBL_ID>  (180) 
CHEMBL146968

>  <document_journal>  (180) 
J. Med. Chem.

>  <bao_endpoint>  (180) 
BAO_0000190

>  <potential_duplicate>  (180) 
False

>  <uo_units>  (180) 
UO_0000065

>  <canonical_smiles>  (180) 
Cc1cc(NCc2cnc3nc(N)nc(N)c3c2C)c(Cl)cc1F

>  <parent_molecule_chembl_id>  (180) 
CHEMBL146968

>  <assay_type>  (180) 
B

>  <src_id>  (180) 
1

>  <ligand_efficiency>  (180) 
{u'le': u'0.43', u'bei': u'21.57', u'sei': u'7.28', u'lle': u'4.25'}

>  <standard_flag>  (180) 
True

>  <molecule_chembl_id>  (180) 
CHEMBL146968

>  <target_organism>  (180) 
Homo sapiens

>  <standard_units>  (180) 
nM

>  <record_id>  (180) 
292925

>  <document_chembl_id>  (180) 
CHEMBL1135401

>  <bao_format>  (180) 
BAO_0000357

>  <data_validity_description>  (180) 
None

>  <activity_id>  (180) 
871217

>  <standard_type>  (180) 
IC50

>  <target_chembl_id>  (180) 
CHEMBL202

>  <data_validity_comment>  (180) 
None

>  <published_value>  (180) 
33

>  <document_year>  (180) 
2002

>  <target_pref_name>  (180) 
Dihydrofolate reductase

>  <assay_chembl_id>  (180) 
CHEMBL669986

>  <standard_relation>  (180) 
=

>  <assay_description>  (180) 
Antimycobacterial activity against human dihydrofolate reductase (hDHFR)

>  <published_relation>  (180) 
=

>  <standard_value>  (180) 
33

>  <qudt_units>  (180) 
http://www.openphacts.org/units/Nanomolar

>  <target_tax_id>  (180) 
9606

>  <bao_label>  (180) 
single protein format

>  <published_units>  (180) 
nM

>  <pchembl_value>  (180) 
7.48

>  <published_type>  (180) 
IC50

>  <activity_comment>  (180) 
None

$$$$

     RDKit          

 25 27  0  0  0  0  0  0  0  0999 V2000
    0.0000    0.0000    0.0000 C   0  0  0  0  0  0  0  0  0  0  0  0
    0.0000    0.0000    0.0000 O   0  0  0  0  0  0  0  0  0  0  0  0
    0.0000    0.0000    0.0000 C   0  0  0  0  0  0  0  0  0  0  0  0
    0.0000    0.0000    0.0000 C   0  0  0  0  0  0  0  0  0  0  0  0
    0.0000    0.0000    0.0000 C   0  0  0  0  0  0  0  0  0  0  0  0
    0.0000    0.0000    0.0000 N   0  0  0  0  0  0  0  0  0  0  0  0
    0.0000    0.0000    0.0000 C   0  0  0  0  0  0  0  0  0  0  0  0
    0.0000    0.0000    0.0000 C   0  0  0  0  0  0  0  0  0  0  0  0
    0.0000    0.0000    0.0000 C   0  0  0  0  0  0  0  0  0  0  0  0
    0.0000    0.0000    0.0000 N   0  0  0  0  0  0  0  0  0  0  0  0
    0.0000    0.0000    0.0000 C   0  0  0  0  0  0  0  0  0  0  0  0
    0.0000    0.0000    0.0000 N   0  0  0  0  0  0  0  0  0  0  0  0
    0.0000    0.0000    0.0000 C   0  0  0  0  0  0  0  0  0  0  0  0
    0.0000    0.0000    0.0000 N   0  0  0  0  0  0  0  0  0  0  0  0
    0.0000    0.0000    0.0000 N   0  0  0  0  0  0  0  0  0  0  0  0
    0.0000    0.0000    0.0000 C   0  0  0  0  0  0  0  0  0  0  0  0
    0.0000    0.0000    0.0000 N   0  0  0  0  0  0  0  0  0  0  0  0
    0.0000    0.0000    0.0000 C   0  0  0  0  0  0  0  0  0  0  0  0
    0.0000    0.0000    0.0000 C   0  0  0  0  0  0  0  0  0  0  0  0
    0.0000    0.0000    0.0000 C   0  0  0  0  0  0  0  0  0  0  0  0
    0.0000    0.0000    0.0000 C   0  0  0  0  0  0  0  0  0  0  0  0
    0.0000    0.0000    0.0000 C   0  0  0  0  0  0  0  0  0  0  0  0
    0.0000    0.0000    0.0000 O   0  0  0  0  0  0  0  0  0  0  0  0
    0.0000    0.0000    0.0000 C   0  0  0  0  0  0  0  0  0  0  0  0
    0.0000    0.0000    0.0000 C   0  0  0  0  0  0  0  0  0  0  0  0
  1  2  1  0
  2  3  1  0
  3  4  2  0
  4  5  1  0
  5  6  1  0
  6  7  1  0
  7  8  1  0
  8  9  2  0
  9 10  1  0
 10 11  2  0
 11 12  1  0
 12 13  2  0
 13 14  1  0
 13 15  1  0
 15 16  2  0
 16 17  1  0
 16 18  1  0
 18 19  2  0
 19 20  1  0
  5 21  2  0
 21 22  1  0
 22 23  1  0
 23 24  1  0
 22 25  2  0
 25  3  1  0
 19  8  1  0
 18 11  1  0
M  END
>  <pIC50>  (181) 
7.82

>  <ChEMBL_ID>  (181) 
CHEMBL23569

>  <document_journal>  (181) 
J. Med. Chem.

>  <bao_endpoint>  (181) 
BAO_0000190

>  <potential_duplicate>  (181) 
False

>  <uo_units>  (181) 
UO_0000065

>  <canonical_smiles>  (181) 
COc1cc(NCc2cnc3nc(N)nc(N)c3c2C)cc(OC)c1

>  <parent_molecule_chembl_id>  (181) 
CHEMBL23569

>  <assay_type>  (181) 
B

>  <src_id>  (181) 
1

>  <ligand_efficiency>  (181) 
{u'le': u'0.43', u'bei': u'22.99', u'sei': u'6.46', u'lle': u'5.97'}

>  <standard_flag>  (181) 
True

>  <molecule_chembl_id>  (181) 
CHEMBL23569

>  <target_organism>  (181) 
Homo sapiens

>  <standard_units>  (181) 
nM

>  <record_id>  (181) 
292940

>  <document_chembl_id>  (181) 
CHEMBL1135401

>  <bao_format>  (181) 
BAO_0000357

>  <data_validity_description>  (181) 
None

>  <activity_id>  (181) 
871221

>  <standard_type>  (181) 
IC50

>  <target_chembl_id>  (181) 
CHEMBL202

>  <data_validity_comment>  (181) 
None

>  <published_value>  (181) 
15

>  <document_year>  (181) 
2002

>  <target_pref_name>  (181) 
Dihydrofolate reductase

>  <assay_chembl_id>  (181) 
CHEMBL669985

>  <standard_relation>  (181) 
=

>  <assay_description>  (181) 
Antimycobacterial activity against Human dihydrofolatereductase (hDHFR)

>  <published_relation>  (181) 
=

>  <standard_value>  (181) 
15

>  <qudt_units>  (181) 
http://www.openphacts.org/units/Nanomolar

>  <target_tax_id>  (181) 
9606

>  <bao_label>  (181) 
single protein format

>  <published_units>  (181) 
nM

>  <pchembl_value>  (181) 
7.82

>  <published_type>  (181) 
IC50

>  <activity_comment>  (181) 
None

$$$$

     RDKit          

 23 25  0  0  0  0  0  0  0  0999 V2000
    0.0000    0.0000    0.0000 C   0  0  0  0  0  0  0  0  0  0  0  0
    0.0000    0.0000    0.0000 C   0  0  0  0  0  0  0  0  0  0  0  0
    0.0000    0.0000    0.0000 C   0  0  0  0  0  0  0  0  0  0  0  0
    0.0000    0.0000    0.0000 C   0  0  0  0  0  0  0  0  0  0  0  0
    0.0000    0.0000    0.0000 C   0  0  0  0  0  0  0  0  0  0  0  0
    0.0000    0.0000    0.0000 F   0  0  0  0  0  0  0  0  0  0  0  0
    0.0000    0.0000    0.0000 C   0  0  0  0  0  0  0  0  0  0  0  0
    0.0000    0.0000    0.0000 C   0  0  0  0  0  0  0  0  0  0  0  0
    0.0000    0.0000    0.0000 N   0  0  0  0  0  0  0  0  0  0  0  0
    0.0000    0.0000    0.0000 C   0  0  0  0  0  0  0  0  0  0  0  0
    0.0000    0.0000    0.0000 C   0  0  0  0  0  0  0  0  0  0  0  0
    0.0000    0.0000    0.0000 C   0  0  0  0  0  0  0  0  0  0  0  0
    0.0000    0.0000    0.0000 N   0  0  0  0  0  0  0  0  0  0  0  0
    0.0000    0.0000    0.0000 C   0  0  0  0  0  0  0  0  0  0  0  0
    0.0000    0.0000    0.0000 N   0  0  0  0  0  0  0  0  0  0  0  0
    0.0000    0.0000    0.0000 C   0  0  0  0  0  0  0  0  0  0  0  0
    0.0000    0.0000    0.0000 N   0  0  0  0  0  0  0  0  0  0  0  0
    0.0000    0.0000    0.0000 N   0  0  0  0  0  0  0  0  0  0  0  0
    0.0000    0.0000    0.0000 C   0  0  0  0  0  0  0  0  0  0  0  0
    0.0000    0.0000    0.0000 N   0  0  0  0  0  0  0  0  0  0  0  0
    0.0000    0.0000    0.0000 C   0  0  0  0  0  0  0  0  0  0  0  0
    0.0000    0.0000    0.0000 C   0  0  0  0  0  0  0  0  0  0  0  0
    0.0000    0.0000    0.0000 C   0  0  0  0  0  0  0  0  0  0  0  0
  1  2  1  0
  2  3  2  0
  3  4  1  0
  4  5  2  0
  5  6  1  0
  5  7  1  0
  7  8  2  0
  8  9  1  0
  9 10  1  0
 10 11  1  0
 11 12  2  0
 12 13  1  0
 13 14  2  0
 14 15  1  0
 15 16  2  0
 16 17  1  0
 16 18  1  0
 18 19  2  0
 19 20  1  0
 19 21  1  0
 21 22  2  0
 22 23  1  0
  8  2  1  0
 22 11  1  0
 21 14  1  0
M  END
>  <pIC50>  (182) 
7.72

>  <ChEMBL_ID>  (182) 
CHEMBL347061

>  <document_journal>  (182) 
J. Med. Chem.

>  <bao_endpoint>  (182) 
BAO_0000190

>  <potential_duplicate>  (182) 
False

>  <uo_units>  (182) 
UO_0000065

>  <canonical_smiles>  (182) 
Cc1ccc(F)cc1NCc2cnc3nc(N)nc(N)c3c2C

>  <parent_molecule_chembl_id>  (182) 
CHEMBL347061

>  <assay_type>  (182) 
B

>  <src_id>  (182) 
1

>  <ligand_efficiency>  (182) 
{u'le': u'0.46', u'bei': u'24.72', u'sei': u'7.52', u'lle': u'5.15'}

>  <standard_flag>  (182) 
True

>  <molecule_chembl_id>  (182) 
CHEMBL347061

>  <target_organism>  (182) 
Homo sapiens

>  <standard_units>  (182) 
nM

>  <record_id>  (182) 
292939

>  <document_chembl_id>  (182) 
CHEMBL1135401

>  <bao_format>  (182) 
BAO_0000357

>  <data_validity_description>  (182) 
None

>  <activity_id>  (182) 
871225

>  <standard_type>  (182) 
IC50

>  <target_chembl_id>  (182) 
CHEMBL202

>  <data_validity_comment>  (182) 
None

>  <published_value>  (182) 
19

>  <document_year>  (182) 
2002

>  <target_pref_name>  (182) 
Dihydrofolate reductase

>  <assay_chembl_id>  (182) 
CHEMBL669986

>  <standard_relation>  (182) 
=

>  <assay_description>  (182) 
Antimycobacterial activity against human dihydrofolate reductase (hDHFR)

>  <published_relation>  (182) 
=

>  <standard_value>  (182) 
19

>  <qudt_units>  (182) 
http://www.openphacts.org/units/Nanomolar

>  <target_tax_id>  (182) 
9606

>  <bao_label>  (182) 
single protein format

>  <published_units>  (182) 
nM

>  <pchembl_value>  (182) 
7.72

>  <published_type>  (182) 
IC50

>  <activity_comment>  (182) 
None

$$$$

     RDKit          

 23 25  0  0  0  0  0  0  0  0999 V2000
    0.0000    0.0000    0.0000 C   0  0  0  0  0  0  0  0  0  0  0  0
    0.0000    0.0000    0.0000 C   0  0  0  0  0  0  0  0  0  0  0  0
    0.0000    0.0000    0.0000 C   0  0  0  0  0  0  0  0  0  0  0  0
    0.0000    0.0000    0.0000 Cl  0  0  0  0  0  0  0  0  0  0  0  0
    0.0000    0.0000    0.0000 C   0  0  0  0  0  0  0  0  0  0  0  0
    0.0000    0.0000    0.0000 C   0  0  0  0  0  0  0  0  0  0  0  0
    0.0000    0.0000    0.0000 C   0  0  0  0  0  0  0  0  0  0  0  0
    0.0000    0.0000    0.0000 C   0  0  0  0  0  0  0  0  0  0  0  0
    0.0000    0.0000    0.0000 N   0  0  0  0  0  0  0  0  0  0  0  0
    0.0000    0.0000    0.0000 C   0  0  0  0  0  0  0  0  0  0  0  0
    0.0000    0.0000    0.0000 C   0  0  0  0  0  0  0  0  0  0  0  0
    0.0000    0.0000    0.0000 C   0  0  0  0  0  0  0  0  0  0  0  0
    0.0000    0.0000    0.0000 N   0  0  0  0  0  0  0  0  0  0  0  0
    0.0000    0.0000    0.0000 C   0  0  0  0  0  0  0  0  0  0  0  0
    0.0000    0.0000    0.0000 N   0  0  0  0  0  0  0  0  0  0  0  0
    0.0000    0.0000    0.0000 C   0  0  0  0  0  0  0  0  0  0  0  0
    0.0000    0.0000    0.0000 N   0  0  0  0  0  0  0  0  0  0  0  0
    0.0000    0.0000    0.0000 N   0  0  0  0  0  0  0  0  0  0  0  0
    0.0000    0.0000    0.0000 C   0  0  0  0  0  0  0  0  0  0  0  0
    0.0000    0.0000    0.0000 N   0  0  0  0  0  0  0  0  0  0  0  0
    0.0000    0.0000    0.0000 C   0  0  0  0  0  0  0  0  0  0  0  0
    0.0000    0.0000    0.0000 C   0  0  0  0  0  0  0  0  0  0  0  0
    0.0000    0.0000    0.0000 C   0  0  0  0  0  0  0  0  0  0  0  0
  1  2  1  0
  2  3  2  0
  3  4  1  0
  3  5  1  0
  5  6  2  0
  6  7  1  0
  7  8  2  0
  8  9  1  0
  9 10  1  0
 10 11  1  0
 11 12  2  0
 12 13  1  0
 13 14  2  0
 14 15  1  0
 15 16  2  0
 16 17  1  0
 16 18  1  0
 18 19  2  0
 19 20  1  0
 19 21  1  0
 21 22  2  0
 22 23  1  0
  8  2  1  0
 22 11  1  0
 21 14  1  0
M  END
>  <pIC50>  (183) 
8.28

>  <ChEMBL_ID>  (183) 
CHEMBL147124

>  <document_journal>  (183) 
J. Med. Chem.

>  <bao_endpoint>  (183) 
BAO_0000190

>  <potential_duplicate>  (183) 
False

>  <uo_units>  (183) 
UO_0000065

>  <canonical_smiles>  (183) 
Cc1c(Cl)cccc1NCc2cnc3nc(N)nc(N)c3c2C

>  <parent_molecule_chembl_id>  (183) 
CHEMBL147124

>  <assay_type>  (183) 
B

>  <src_id>  (183) 
1

>  <ligand_efficiency>  (183) 
{u'le': u'0.49', u'bei': u'25.19', u'sei': u'8.06', u'lle': u'5.25'}

>  <standard_flag>  (183) 
True

>  <molecule_chembl_id>  (183) 
CHEMBL147124

>  <target_organism>  (183) 
Homo sapiens

>  <standard_units>  (183) 
nM

>  <record_id>  (183) 
292900

>  <document_chembl_id>  (183) 
CHEMBL1135401

>  <bao_format>  (183) 
BAO_0000357

>  <data_validity_description>  (183) 
None

>  <activity_id>  (183) 
871229

>  <standard_type>  (183) 
IC50

>  <target_chembl_id>  (183) 
CHEMBL202

>  <data_validity_comment>  (183) 
None

>  <published_value>  (183) 
5.2

>  <document_year>  (183) 
2002

>  <target_pref_name>  (183) 
Dihydrofolate reductase

>  <assay_chembl_id>  (183) 
CHEMBL669986

>  <standard_relation>  (183) 
=

>  <assay_description>  (183) 
Antimycobacterial activity against human dihydrofolate reductase (hDHFR)

>  <published_relation>  (183) 
=

>  <standard_value>  (183) 
5.2

>  <qudt_units>  (183) 
http://www.openphacts.org/units/Nanomolar

>  <target_tax_id>  (183) 
9606

>  <bao_label>  (183) 
single protein format

>  <published_units>  (183) 
nM

>  <pchembl_value>  (183) 
8.28

>  <published_type>  (183) 
IC50

>  <activity_comment>  (183) 
None

$$$$

     RDKit          

 32 34  0  0  0  0  0  0  0  0999 V2000
    0.0000    0.0000    0.0000 C   0  0  0  0  0  0  0  0  0  0  0  0
    0.0000    0.0000    0.0000 C   0  0  0  0  0  0  0  0  0  0  0  0
    0.0000    0.0000    0.0000 C   0  0  0  0  0  0  0  0  0  0  0  0
    0.0000    0.0000    0.0000 C   0  0  0  0  0  0  0  0  0  0  0  0
    0.0000    0.0000    0.0000 C   0  0  0  0  0  0  0  0  0  0  0  0
    0.0000    0.0000    0.0000 O   0  0  0  0  0  0  0  0  0  0  0  0
    0.0000    0.0000    0.0000 C   0  0  0  0  0  0  0  0  0  0  0  0
    0.0000    0.0000    0.0000 N   0  0  0  0  0  0  0  0  0  0  0  0
    0.0000    0.0000    0.0000 C   0  0  0  0  0  0  0  0  0  0  0  0
    0.0000    0.0000    0.0000 N   0  0  0  0  0  0  0  0  0  0  0  0
    0.0000    0.0000    0.0000 N   0  0  0  0  0  0  0  0  0  0  0  0
    0.0000    0.0000    0.0000 C   0  0  0  0  0  0  0  0  0  0  0  0
    0.0000    0.0000    0.0000 N   0  0  0  0  0  0  0  0  0  0  0  0
    0.0000    0.0000    0.0000 C   0  0  0  0  0  0  0  0  0  0  0  0
    0.0000    0.0000    0.0000 C   0  0  0  0  0  0  0  0  0  0  0  0
    0.0000    0.0000    0.0000 C   0  0  0  0  0  0  0  0  0  0  0  0
    0.0000    0.0000    0.0000 C   0  0  0  0  0  0  0  0  0  0  0  0
    0.0000    0.0000    0.0000 C   0  0  0  0  0  0  0  0  0  0  0  0
    0.0000    0.0000    0.0000 C   0  0  0  0  0  0  0  0  0  0  0  0
    0.0000    0.0000    0.0000 C   0  0  0  0  0  0  0  0  0  0  0  0
    0.0000    0.0000    0.0000 C   0  0  0  0  0  0  0  0  0  0  0  0
    0.0000    0.0000    0.0000 O   0  0  0  0  0  0  0  0  0  0  0  0
    0.0000    0.0000    0.0000 N   0  0  0  0  0  0  0  0  0  0  0  0
    0.0000    0.0000    0.0000 C   0  0  0  0  0  0  0  0  0  0  0  0
    0.0000    0.0000    0.0000 C   0  0  0  0  0  0  0  0  0  0  0  0
    0.0000    0.0000    0.0000 C   0  0  0  0  0  0  0  0  0  0  0  0
    0.0000    0.0000    0.0000 C   0  0  0  0  0  0  0  0  0  0  0  0
    0.0000    0.0000    0.0000 O   0  0  0  0  0  0  0  0  0  0  0  0
    0.0000    0.0000    0.0000 O   0  0  0  0  0  0  0  0  0  0  0  0
    0.0000    0.0000    0.0000 C   0  0  0  0  0  0  0  0  0  0  0  0
    0.0000    0.0000    0.0000 O   0  0  0  0  0  0  0  0  0  0  0  0
    0.0000    0.0000    0.0000 O   0  0  0  0  0  0  0  0  0  0  0  0
  1  2  1  0
  2  3  2  0
  3  4  1  0
  4  5  2  0
  5  6  1  0
  6  7  1  0
  7  8  2  0
  8  9  1  0
  9 10  1  0
  9 11  2  0
 11 12  1  0
 12 13  1  0
 12 14  2  0
  2 15  1  0
 15 16  2  0
 16 17  1  0
 17 18  2  0
 18 19  1  0
 19 20  2  0
 18 21  1  0
 21 22  2  0
 21 23  1  0
 23 24  1  0
 24 25  1  0
 25 26  1  0
 26 27  1  0
 27 28  2  0
 27 29  1  0
 24 30  1  0
 30 31  2  0
 30 32  1  0
 14  4  1  0
 14  7  1  0
 20 15  1  0
M  END
>  <pIC50>  (184) 
4.38

>  <ChEMBL_ID>  (184) 
CHEMBL2092925

>  <document_journal>  (184) 
J. Med. Chem.

>  <bao_endpoint>  (184) 
BAO_0000190

>  <potential_duplicate>  (184) 
False

>  <uo_units>  (184) 
UO_0000065

>  <canonical_smiles>  (184) 
C\C(=C/c1coc2nc(N)nc(N)c12)\c3ccc(cc3)C(=O)N[C@@H](CCC(=O)O)C(=O)O

>  <parent_molecule_chembl_id>  (184) 
CHEMBL2092925

>  <assay_type>  (184) 
B

>  <src_id>  (184) 
1

>  <ligand_efficiency>  (184) 
{u'le': u'0.19', u'bei': u'9.96', u'sei': u'2.25', u'lle': u'2.95'}

>  <standard_flag>  (184) 
True

>  <molecule_chembl_id>  (184) 
CHEMBL2092925

>  <target_organism>  (184) 
Homo sapiens

>  <standard_units>  (184) 
nM

>  <record_id>  (184) 
198916

>  <document_chembl_id>  (184) 
CHEMBL1133617

>  <bao_format>  (184) 
BAO_0000357

>  <data_validity_description>  (184) 
None

>  <activity_id>  (184) 
872386

>  <standard_type>  (184) 
IC50

>  <target_chembl_id>  (184) 
CHEMBL202

>  <data_validity_comment>  (184) 
None

>  <published_value>  (184) 
42

>  <document_year>  (184) 
2000

>  <target_pref_name>  (184) 
Dihydrofolate reductase

>  <assay_chembl_id>  (184) 
CHEMBL668081

>  <standard_relation>  (184) 
=

>  <assay_description>  (184) 
Inhibitory concentration against recombinant human (rh) Dihydrofolate reductase

>  <published_relation>  (184) 
=

>  <standard_value>  (184) 
42000

>  <qudt_units>  (184) 
http://www.openphacts.org/units/Nanomolar

>  <target_tax_id>  (184) 
9606

>  <bao_label>  (184) 
single protein format

>  <published_units>  (184) 
uM

>  <pchembl_value>  (184) 
4.38

>  <published_type>  (184) 
IC50

>  <activity_comment>  (184) 
None

$$$$

     RDKit          

 23 25  0  0  0  0  0  0  0  0999 V2000
    0.0000    0.0000    0.0000 C   0  0  0  0  0  0  0  0  0  0  0  0
    0.0000    0.0000    0.0000 C   0  0  0  0  0  0  0  0  0  0  0  0
    0.0000    0.0000    0.0000 C   0  0  0  0  0  0  0  0  0  0  0  0
    0.0000    0.0000    0.0000 C   0  0  0  0  0  0  0  0  0  0  0  0
    0.0000    0.0000    0.0000 C   0  0  0  0  0  0  0  0  0  0  0  0
    0.0000    0.0000    0.0000 N   0  0  0  0  0  0  0  0  0  0  0  0
    0.0000    0.0000    0.0000 C   0  0  0  0  0  0  0  0  0  0  0  0
    0.0000    0.0000    0.0000 C   0  0  0  0  0  0  0  0  0  0  0  0
    0.0000    0.0000    0.0000 C   0  0  0  0  0  0  0  0  0  0  0  0
    0.0000    0.0000    0.0000 N   0  0  0  0  0  0  0  0  0  0  0  0
    0.0000    0.0000    0.0000 C   0  0  0  0  0  0  0  0  0  0  0  0
    0.0000    0.0000    0.0000 N   0  0  0  0  0  0  0  0  0  0  0  0
    0.0000    0.0000    0.0000 C   0  0  0  0  0  0  0  0  0  0  0  0
    0.0000    0.0000    0.0000 N   0  0  0  0  0  0  0  0  0  0  0  0
    0.0000    0.0000    0.0000 N   0  0  0  0  0  0  0  0  0  0  0  0
    0.0000    0.0000    0.0000 C   0  0  0  0  0  0  0  0  0  0  0  0
    0.0000    0.0000    0.0000 N   0  0  0  0  0  0  0  0  0  0  0  0
    0.0000    0.0000    0.0000 C   0  0  0  0  0  0  0  0  0  0  0  0
    0.0000    0.0000    0.0000 C   0  0  0  0  0  0  0  0  0  0  0  0
    0.0000    0.0000    0.0000 C   0  0  0  0  0  0  0  0  0  0  0  0
    0.0000    0.0000    0.0000 C   0  0  0  0  0  0  0  0  0  0  0  0
    0.0000    0.0000    0.0000 C   0  0  0  0  0  0  0  0  0  0  0  0
    0.0000    0.0000    0.0000 Br  0  0  0  0  0  0  0  0  0  0  0  0
  1  2  1  0
  2  3  2  0
  3  4  1  0
  4  5  2  0
  5  6  1  0
  6  7  1  0
  7  8  1  0
  8  9  2  0
  9 10  1  0
 10 11  2  0
 11 12  1  0
 12 13  2  0
 13 14  1  0
 13 15  1  0
 15 16  2  0
 16 17  1  0
 16 18  1  0
 18 19  2  0
 19 20  1  0
  5 21  1  0
 21 22  2  0
 22 23  1  0
 22  2  1  0
 19  8  1  0
 18 11  1  0
M  END
>  <pIC50>  (185) 
8.43

>  <ChEMBL_ID>  (185) 
CHEMBL148814

>  <document_journal>  (185) 
J. Med. Chem.

>  <bao_endpoint>  (185) 
BAO_0000190

>  <potential_duplicate>  (185) 
False

>  <uo_units>  (185) 
UO_0000065

>  <canonical_smiles>  (185) 
Cc1ccc(NCc2cnc3nc(N)nc(N)c3c2C)cc1Br

>  <parent_molecule_chembl_id>  (185) 
CHEMBL148814

>  <assay_type>  (185) 
B

>  <src_id>  (185) 
1

>  <ligand_efficiency>  (185) 
{u'le': u'0.5', u'bei': u'22.59', u'sei': u'8.21', u'lle': u'5.32'}

>  <standard_flag>  (185) 
True

>  <molecule_chembl_id>  (185) 
CHEMBL148814

>  <target_organism>  (185) 
Homo sapiens

>  <standard_units>  (185) 
nM

>  <record_id>  (185) 
292899

>  <document_chembl_id>  (185) 
CHEMBL1135401

>  <bao_format>  (185) 
BAO_0000357

>  <data_validity_description>  (185) 
None

>  <activity_id>  (185) 
872496

>  <standard_type>  (185) 
IC50

>  <target_chembl_id>  (185) 
CHEMBL202

>  <data_validity_comment>  (185) 
None

>  <published_value>  (185) 
3.7

>  <document_year>  (185) 
2002

>  <target_pref_name>  (185) 
Dihydrofolate reductase

>  <assay_chembl_id>  (185) 
CHEMBL669986

>  <standard_relation>  (185) 
=

>  <assay_description>  (185) 
Antimycobacterial activity against human dihydrofolate reductase (hDHFR)

>  <published_relation>  (185) 
=

>  <standard_value>  (185) 
3.7

>  <qudt_units>  (185) 
http://www.openphacts.org/units/Nanomolar

>  <target_tax_id>  (185) 
9606

>  <bao_label>  (185) 
single protein format

>  <published_units>  (185) 
nM

>  <pchembl_value>  (185) 
8.43

>  <published_type>  (185) 
IC50

>  <activity_comment>  (185) 
None

$$$$

     RDKit          

 23 25  0  0  0  0  0  0  0  0999 V2000
    0.0000    0.0000    0.0000 C   0  0  0  0  0  0  0  0  0  0  0  0
    0.0000    0.0000    0.0000 C   0  0  0  0  0  0  0  0  0  0  0  0
    0.0000    0.0000    0.0000 C   0  0  0  0  0  0  0  0  0  0  0  0
    0.0000    0.0000    0.0000 C   0  0  0  0  0  0  0  0  0  0  0  0
    0.0000    0.0000    0.0000 Cl  0  0  0  0  0  0  0  0  0  0  0  0
    0.0000    0.0000    0.0000 C   0  0  0  0  0  0  0  0  0  0  0  0
    0.0000    0.0000    0.0000 C   0  0  0  0  0  0  0  0  0  0  0  0
    0.0000    0.0000    0.0000 C   0  0  0  0  0  0  0  0  0  0  0  0
    0.0000    0.0000    0.0000 N   0  0  0  0  0  0  0  0  0  0  0  0
    0.0000    0.0000    0.0000 C   0  0  0  0  0  0  0  0  0  0  0  0
    0.0000    0.0000    0.0000 C   0  0  0  0  0  0  0  0  0  0  0  0
    0.0000    0.0000    0.0000 C   0  0  0  0  0  0  0  0  0  0  0  0
    0.0000    0.0000    0.0000 N   0  0  0  0  0  0  0  0  0  0  0  0
    0.0000    0.0000    0.0000 C   0  0  0  0  0  0  0  0  0  0  0  0
    0.0000    0.0000    0.0000 N   0  0  0  0  0  0  0  0  0  0  0  0
    0.0000    0.0000    0.0000 C   0  0  0  0  0  0  0  0  0  0  0  0
    0.0000    0.0000    0.0000 N   0  0  0  0  0  0  0  0  0  0  0  0
    0.0000    0.0000    0.0000 N   0  0  0  0  0  0  0  0  0  0  0  0
    0.0000    0.0000    0.0000 C   0  0  0  0  0  0  0  0  0  0  0  0
    0.0000    0.0000    0.0000 N   0  0  0  0  0  0  0  0  0  0  0  0
    0.0000    0.0000    0.0000 C   0  0  0  0  0  0  0  0  0  0  0  0
    0.0000    0.0000    0.0000 C   0  0  0  0  0  0  0  0  0  0  0  0
    0.0000    0.0000    0.0000 C   0  0  0  0  0  0  0  0  0  0  0  0
  1  2  1  0
  2  3  2  0
  3  4  1  0
  4  5  1  0
  4  6  2  0
  6  7  1  0
  7  8  2  0
  8  9  1  0
  9 10  1  0
 10 11  1  0
 11 12  2  0
 12 13  1  0
 13 14  2  0
 14 15  1  0
 15 16  2  0
 16 17  1  0
 16 18  1  0
 18 19  2  0
 19 20  1  0
 19 21  1  0
 21 22  2  0
 22 23  1  0
  8  2  1  0
 22 11  1  0
 21 14  1  0
M  END
>  <pIC50>  (186) 
8.55

>  <ChEMBL_ID>  (186) 
CHEMBL150470

>  <document_journal>  (186) 
J. Med. Chem.

>  <bao_endpoint>  (186) 
BAO_0000190

>  <potential_duplicate>  (186) 
False

>  <uo_units>  (186) 
UO_0000065

>  <canonical_smiles>  (186) 
Cc1cc(Cl)ccc1NCc2cnc3nc(N)nc(N)c3c2C

>  <parent_molecule_chembl_id>  (186) 
CHEMBL150470

>  <assay_type>  (186) 
B

>  <src_id>  (186) 
1

>  <ligand_efficiency>  (186) 
{u'le': u'0.51', u'bei': u'26.01', u'sei': u'8.32', u'lle': u'5.52'}

>  <standard_flag>  (186) 
True

>  <molecule_chembl_id>  (186) 
CHEMBL150470

>  <target_organism>  (186) 
Homo sapiens

>  <standard_units>  (186) 
nM

>  <record_id>  (186) 
292924

>  <document_chembl_id>  (186) 
CHEMBL1135401

>  <bao_format>  (186) 
BAO_0000357

>  <data_validity_description>  (186) 
None

>  <activity_id>  (186) 
873642

>  <standard_type>  (186) 
IC50

>  <target_chembl_id>  (186) 
CHEMBL202

>  <data_validity_comment>  (186) 
None

>  <published_value>  (186) 
2.8

>  <document_year>  (186) 
2002

>  <target_pref_name>  (186) 
Dihydrofolate reductase

>  <assay_chembl_id>  (186) 
CHEMBL669986

>  <standard_relation>  (186) 
=

>  <assay_description>  (186) 
Antimycobacterial activity against human dihydrofolate reductase (hDHFR)

>  <published_relation>  (186) 
=

>  <standard_value>  (186) 
2.8

>  <qudt_units>  (186) 
http://www.openphacts.org/units/Nanomolar

>  <target_tax_id>  (186) 
9606

>  <bao_label>  (186) 
single protein format

>  <published_units>  (186) 
nM

>  <pchembl_value>  (186) 
8.55

>  <published_type>  (186) 
IC50

>  <activity_comment>  (186) 
None

$$$$

     RDKit          

 25 27  0  0  0  0  0  0  0  0999 V2000
    0.0000    0.0000    0.0000 C   0  0  0  0  0  0  0  0  0  0  0  0
    0.0000    0.0000    0.0000 O   0  0  0  0  0  0  0  0  0  0  0  0
    0.0000    0.0000    0.0000 C   0  0  0  0  0  0  0  0  0  0  0  0
    0.0000    0.0000    0.0000 C   0  0  0  0  0  0  0  0  0  0  0  0
    0.0000    0.0000    0.0000 C   0  0  0  0  0  0  0  0  0  0  0  0
    0.0000    0.0000    0.0000 C   0  0  0  0  0  0  0  0  0  0  0  0
    0.0000    0.0000    0.0000 N   0  0  0  0  0  0  0  0  0  0  0  0
    0.0000    0.0000    0.0000 C   0  0  0  0  0  0  0  0  0  0  0  0
    0.0000    0.0000    0.0000 C   0  0  0  0  0  0  0  0  0  0  0  0
    0.0000    0.0000    0.0000 C   0  0  0  0  0  0  0  0  0  0  0  0
    0.0000    0.0000    0.0000 N   0  0  0  0  0  0  0  0  0  0  0  0
    0.0000    0.0000    0.0000 C   0  0  0  0  0  0  0  0  0  0  0  0
    0.0000    0.0000    0.0000 N   0  0  0  0  0  0  0  0  0  0  0  0
    0.0000    0.0000    0.0000 C   0  0  0  0  0  0  0  0  0  0  0  0
    0.0000    0.0000    0.0000 N   0  0  0  0  0  0  0  0  0  0  0  0
    0.0000    0.0000    0.0000 N   0  0  0  0  0  0  0  0  0  0  0  0
    0.0000    0.0000    0.0000 C   0  0  0  0  0  0  0  0  0  0  0  0
    0.0000    0.0000    0.0000 N   0  0  0  0  0  0  0  0  0  0  0  0
    0.0000    0.0000    0.0000 C   0  0  0  0  0  0  0  0  0  0  0  0
    0.0000    0.0000    0.0000 C   0  0  0  0  0  0  0  0  0  0  0  0
    0.0000    0.0000    0.0000 C   0  0  0  0  0  0  0  0  0  0  0  0
    0.0000    0.0000    0.0000 C   0  0  0  0  0  0  0  0  0  0  0  0
    0.0000    0.0000    0.0000 C   0  0  0  0  0  0  0  0  0  0  0  0
    0.0000    0.0000    0.0000 O   0  0  0  0  0  0  0  0  0  0  0  0
    0.0000    0.0000    0.0000 C   0  0  0  0  0  0  0  0  0  0  0  0
  1  2  1  0
  2  3  1  0
  3  4  2  0
  4  5  1  0
  5  6  2  0
  6  7  1  0
  7  8  1  0
  8  9  1  0
  9 10  2  0
 10 11  1  0
 11 12  2  0
 12 13  1  0
 13 14  2  0
 14 15  1  0
 14 16  1  0
 16 17  2  0
 17 18  1  0
 17 19  1  0
 19 20  2  0
 20 21  1  0
  6 22  1  0
 22 23  2  0
 23 24  1  0
 24 25  1  0
 23  3  1  0
 20  9  1  0
 19 12  1  0
M  END
>  <pIC50>  (187) 
8.29

>  <ChEMBL_ID>  (187) 
CHEMBL283518

>  <document_journal>  (187) 
J. Med. Chem.

>  <bao_endpoint>  (187) 
BAO_0000190

>  <potential_duplicate>  (187) 
False

>  <uo_units>  (187) 
UO_0000065

>  <canonical_smiles>  (187) 
COc1ccc(NCc2cnc3nc(N)nc(N)c3c2C)cc1OC

>  <parent_molecule_chembl_id>  (187) 
CHEMBL283518

>  <assay_type>  (187) 
B

>  <src_id>  (187) 
1

>  <ligand_efficiency>  (187) 
{u'le': u'0.45', u'bei': u'24.36', u'sei': u'6.84', u'lle': u'6.44'}

>  <standard_flag>  (187) 
True

>  <molecule_chembl_id>  (187) 
CHEMBL283518

>  <target_organism>  (187) 
Homo sapiens

>  <standard_units>  (187) 
nM

>  <record_id>  (187) 
292902

>  <document_chembl_id>  (187) 
CHEMBL1135401

>  <bao_format>  (187) 
BAO_0000357

>  <data_validity_description>  (187) 
None

>  <activity_id>  (187) 
873646

>  <standard_type>  (187) 
IC50

>  <target_chembl_id>  (187) 
CHEMBL202

>  <data_validity_comment>  (187) 
None

>  <published_value>  (187) 
5.1

>  <document_year>  (187) 
2002

>  <target_pref_name>  (187) 
Dihydrofolate reductase

>  <assay_chembl_id>  (187) 
CHEMBL669986

>  <standard_relation>  (187) 
=

>  <assay_description>  (187) 
Antimycobacterial activity against human dihydrofolate reductase (hDHFR)

>  <published_relation>  (187) 
=

>  <standard_value>  (187) 
5.1

>  <qudt_units>  (187) 
http://www.openphacts.org/units/Nanomolar

>  <target_tax_id>  (187) 
9606

>  <bao_label>  (187) 
single protein format

>  <published_units>  (187) 
nM

>  <pchembl_value>  (187) 
8.29

>  <published_type>  (187) 
IC50

>  <activity_comment>  (187) 
None

$$$$

     RDKit          

 26 29  0  0  0  0  0  0  0  0999 V2000
    0.0000    0.0000    0.0000 C   0  0  0  0  0  0  0  0  0  0  0  0
    0.0000    0.0000    0.0000 N   0  0  0  0  0  0  0  0  0  0  0  0
    0.0000    0.0000    0.0000 C   0  0  0  0  0  0  0  0  0  0  0  0
    0.0000    0.0000    0.0000 C   0  0  0  0  0  0  0  0  0  0  0  0
    0.0000    0.0000    0.0000 C   0  0  0  0  0  0  0  0  0  0  0  0
    0.0000    0.0000    0.0000 N   0  0  0  0  0  0  0  0  0  0  0  0
    0.0000    0.0000    0.0000 C   0  0  0  0  0  0  0  0  0  0  0  0
    0.0000    0.0000    0.0000 N   0  0  0  0  0  0  0  0  0  0  0  0
    0.0000    0.0000    0.0000 C   0  0  0  0  0  0  0  0  0  0  0  0
    0.0000    0.0000    0.0000 N   0  0  0  0  0  0  0  0  0  0  0  0
    0.0000    0.0000    0.0000 N   0  0  0  0  0  0  0  0  0  0  0  0
    0.0000    0.0000    0.0000 C   0  0  0  0  0  0  0  0  0  0  0  0
    0.0000    0.0000    0.0000 N   0  0  0  0  0  0  0  0  0  0  0  0
    0.0000    0.0000    0.0000 C   0  0  0  0  0  0  0  0  0  0  0  0
    0.0000    0.0000    0.0000 C   0  0  0  0  0  0  0  0  0  0  0  0
    0.0000    0.0000    0.0000 C   0  0  0  0  0  0  0  0  0  0  0  0
    0.0000    0.0000    0.0000 C   0  0  0  0  0  0  0  0  0  0  0  0
    0.0000    0.0000    0.0000 C   0  0  0  0  0  0  0  0  0  0  0  0
    0.0000    0.0000    0.0000 C   0  0  0  0  0  0  0  0  0  0  0  0
    0.0000    0.0000    0.0000 C   0  0  0  0  0  0  0  0  0  0  0  0
    0.0000    0.0000    0.0000 C   0  0  0  0  0  0  0  0  0  0  0  0
    0.0000    0.0000    0.0000 C   0  0  0  0  0  0  0  0  0  0  0  0
    0.0000    0.0000    0.0000 C   0  0  0  0  0  0  0  0  0  0  0  0
    0.0000    0.0000    0.0000 C   0  0  0  0  0  0  0  0  0  0  0  0
    0.0000    0.0000    0.0000 C   0  0  0  0  0  0  0  0  0  0  0  0
    0.0000    0.0000    0.0000 C   0  0  0  0  0  0  0  0  0  0  0  0
  1  2  1  0
  2  3  1  0
  3  4  1  0
  4  5  2  0
  5  6  1  0
  6  7  2  0
  7  8  1  0
  8  9  2  0
  9 10  1  0
  9 11  1  0
 11 12  2  0
 12 13  1  0
 12 14  1  0
 14 15  2  0
 15 16  1  0
  2 17  1  0
 17 18  2  0
 18 19  1  0
 19 20  2  0
 20 21  1  0
 21 22  1  0
 22 23  1  0
 23 24  1  0
 24 25  1  0
 25 26  1  0
 15  4  1  0
 14  7  1  0
 26 17  1  0
 26 21  2  0
M  END
>  <pIC50>  (188) 
6.15

>  <ChEMBL_ID>  (188) 
CHEMBL23220

>  <document_journal>  (188) 
J. Med. Chem.

>  <bao_endpoint>  (188) 
BAO_0000190

>  <potential_duplicate>  (188) 
False

>  <uo_units>  (188) 
UO_0000065

>  <canonical_smiles>  (188) 
CN(Cc1cnc2nc(N)nc(N)c2c1C)c3cccc4CCCCc34

>  <parent_molecule_chembl_id>  (188) 
CHEMBL23220

>  <assay_type>  (188) 
B

>  <src_id>  (188) 
1

>  <ligand_efficiency>  (188) 
{u'le': u'0.32', u'bei': u'17.65', u'sei': u'6.54', u'lle': u'2.4'}

>  <standard_flag>  (188) 
True

>  <molecule_chembl_id>  (188) 
CHEMBL23220

>  <target_organism>  (188) 
Homo sapiens

>  <standard_units>  (188) 
nM

>  <record_id>  (188) 
292894

>  <document_chembl_id>  (188) 
CHEMBL1135401

>  <bao_format>  (188) 
BAO_0000357

>  <data_validity_description>  (188) 
None

>  <activity_id>  (188) 
873650

>  <standard_type>  (188) 
IC50

>  <target_chembl_id>  (188) 
CHEMBL202

>  <data_validity_comment>  (188) 
None

>  <published_value>  (188) 
710

>  <document_year>  (188) 
2002

>  <target_pref_name>  (188) 
Dihydrofolate reductase

>  <assay_chembl_id>  (188) 
CHEMBL669986

>  <standard_relation>  (188) 
=

>  <assay_description>  (188) 
Antimycobacterial activity against human dihydrofolate reductase (hDHFR)

>  <published_relation>  (188) 
=

>  <standard_value>  (188) 
710

>  <qudt_units>  (188) 
http://www.openphacts.org/units/Nanomolar

>  <target_tax_id>  (188) 
9606

>  <bao_label>  (188) 
single protein format

>  <published_units>  (188) 
nM

>  <pchembl_value>  (188) 
6.15

>  <published_type>  (188) 
IC50

>  <activity_comment>  (188) 
None

$$$$

     RDKit          

 31 36  0  0  0  0  0  0  0  0999 V2000
    0.0000    0.0000    0.0000 C   0  0  0  0  0  0  0  0  0  0  0  0
    0.0000    0.0000    0.0000 C   0  0  0  0  0  0  0  0  0  0  0  0
    0.0000    0.0000    0.0000 C   0  0  0  0  0  0  0  0  0  0  0  0
    0.0000    0.0000    0.0000 C   0  0  0  0  0  0  0  0  0  0  0  0
    0.0000    0.0000    0.0000 N   0  0  0  0  0  0  0  0  0  0  0  0
    0.0000    0.0000    0.0000 C   0  0  0  0  0  0  0  0  0  0  0  0
    0.0000    0.0000    0.0000 C   0  0  0  0  0  0  0  0  0  0  0  0
    0.0000    0.0000    0.0000 C   0  0  0  0  0  0  0  0  0  0  0  0
    0.0000    0.0000    0.0000 C   0  0  0  0  0  0  0  0  0  0  0  0
    0.0000    0.0000    0.0000 C   0  0  0  0  0  0  0  0  0  0  0  0
    0.0000    0.0000    0.0000 C   0  0  0  0  0  0  0  0  0  0  0  0
    0.0000    0.0000    0.0000 C   0  0  0  0  0  0  0  0  0  0  0  0
    0.0000    0.0000    0.0000 C   0  0  0  0  0  0  0  0  0  0  0  0
    0.0000    0.0000    0.0000 C   0  0  0  0  0  0  0  0  0  0  0  0
    0.0000    0.0000    0.0000 C   0  0  0  0  0  0  0  0  0  0  0  0
    0.0000    0.0000    0.0000 C   0  0  0  0  0  0  0  0  0  0  0  0
    0.0000    0.0000    0.0000 C   0  0  0  0  0  0  0  0  0  0  0  0
    0.0000    0.0000    0.0000 C   0  0  0  0  0  0  0  0  0  0  0  0
    0.0000    0.0000    0.0000 C   0  0  0  0  0  0  0  0  0  0  0  0
    0.0000    0.0000    0.0000 C   0  0  0  0  0  0  0  0  0  0  0  0
    0.0000    0.0000    0.0000 C   0  0  0  0  0  0  0  0  0  0  0  0
    0.0000    0.0000    0.0000 C   0  0  0  0  0  0  0  0  0  0  0  0
    0.0000    0.0000    0.0000 N   0  0  0  0  0  0  0  0  0  0  0  0
    0.0000    0.0000    0.0000 C   0  0  0  0  0  0  0  0  0  0  0  0
    0.0000    0.0000    0.0000 N   0  0  0  0  0  0  0  0  0  0  0  0
    0.0000    0.0000    0.0000 C   0  0  0  0  0  0  0  0  0  0  0  0
    0.0000    0.0000    0.0000 N   0  0  0  0  0  0  0  0  0  0  0  0
    0.0000    0.0000    0.0000 N   0  0  0  0  0  0  0  0  0  0  0  0
    0.0000    0.0000    0.0000 C   0  0  0  0  0  0  0  0  0  0  0  0
    0.0000    0.0000    0.0000 N   0  0  0  0  0  0  0  0  0  0  0  0
    0.0000    0.0000    0.0000 C   0  0  0  0  0  0  0  0  0  0  0  0
  1  2  1  0
  2  3  2  0
  3  4  1  0
  4  5  1  0
  5  6  1  0
  6  7  2  0
  7  8  1  0
  8  9  2  0
  9 10  1  0
 10 11  2  0
 11 12  1  0
 12 13  2  0
 13 14  1  0
 14 15  2  0
 15 16  1  0
 16 17  2  0
 17 18  1  0
 18 19  2  0
 19 20  1  0
 20 21  2  0
  3 22  1  0
 22 23  2  0
 23 24  1  0
 24 25  2  0
 25 26  1  0
 26 27  1  0
 26 28  2  0
 28 29  1  0
 29 30  1  0
 29 31  2  0
 31  2  1  0
 19  6  1  0
 20  9  1  0
 21 12  1  0
 21 16  1  0
 31 24  1  0
M  END
>  <pIC50>  (189) 
8.42

>  <ChEMBL_ID>  (189) 
CHEMBL359144

>  <document_journal>  (189) 
J. Med. Chem.

>  <bao_endpoint>  (189) 
BAO_0000190

>  <potential_duplicate>  (189) 
False

>  <uo_units>  (189) 
UO_0000065

>  <canonical_smiles>  (189) 
Cc1c(CNc2ccc3ccc4cccc5ccc2c3c45)cnc6nc(N)nc(N)c16

>  <parent_molecule_chembl_id>  (189) 
CHEMBL359144

>  <assay_type>  (189) 
B

>  <src_id>  (189) 
1

>  <ligand_efficiency>  (189) 
{u'le': u'0.37', u'bei': u'20.82', u'sei': u'8.2', u'lle': u'4.43'}

>  <standard_flag>  (189) 
True

>  <molecule_chembl_id>  (189) 
CHEMBL359144

>  <target_organism>  (189) 
Homo sapiens

>  <standard_units>  (189) 
nM

>  <record_id>  (189) 
292879

>  <document_chembl_id>  (189) 
CHEMBL1135401

>  <bao_format>  (189) 
BAO_0000357

>  <data_validity_description>  (189) 
None

>  <activity_id>  (189) 
873677

>  <standard_type>  (189) 
IC50

>  <target_chembl_id>  (189) 
CHEMBL202

>  <data_validity_comment>  (189) 
None

>  <published_value>  (189) 
3.8

>  <document_year>  (189) 
2002

>  <target_pref_name>  (189) 
Dihydrofolate reductase

>  <assay_chembl_id>  (189) 
CHEMBL669986

>  <standard_relation>  (189) 
=

>  <assay_description>  (189) 
Antimycobacterial activity against human dihydrofolate reductase (hDHFR)

>  <published_relation>  (189) 
=

>  <standard_value>  (189) 
3.8

>  <qudt_units>  (189) 
http://www.openphacts.org/units/Nanomolar

>  <target_tax_id>  (189) 
9606

>  <bao_label>  (189) 
single protein format

>  <published_units>  (189) 
nM

>  <pchembl_value>  (189) 
8.42

>  <published_type>  (189) 
IC50

>  <activity_comment>  (189) 
None

$$$$

     RDKit          

 22 24  0  0  0  0  0  0  0  0999 V2000
    0.0000    0.0000    0.0000 C   0  0  0  0  0  0  0  0  0  0  0  0
    0.0000    0.0000    0.0000 C   0  0  0  0  0  0  0  0  0  0  0  0
    0.0000    0.0000    0.0000 C   0  0  0  0  0  0  0  0  0  0  0  0
    0.0000    0.0000    0.0000 C   0  0  0  0  0  0  0  0  0  0  0  0
    0.0000    0.0000    0.0000 N   0  0  0  0  0  0  0  0  0  0  0  0
    0.0000    0.0000    0.0000 C   0  0  0  0  0  0  0  0  0  0  0  0
    0.0000    0.0000    0.0000 C   0  0  0  0  0  0  0  0  0  0  0  0
    0.0000    0.0000    0.0000 C   0  0  0  0  0  0  0  0  0  0  0  0
    0.0000    0.0000    0.0000 C   0  0  0  0  0  0  0  0  0  0  0  0
    0.0000    0.0000    0.0000 Cl  0  0  0  0  0  0  0  0  0  0  0  0
    0.0000    0.0000    0.0000 C   0  0  0  0  0  0  0  0  0  0  0  0
    0.0000    0.0000    0.0000 C   0  0  0  0  0  0  0  0  0  0  0  0
    0.0000    0.0000    0.0000 C   0  0  0  0  0  0  0  0  0  0  0  0
    0.0000    0.0000    0.0000 N   0  0  0  0  0  0  0  0  0  0  0  0
    0.0000    0.0000    0.0000 C   0  0  0  0  0  0  0  0  0  0  0  0
    0.0000    0.0000    0.0000 N   0  0  0  0  0  0  0  0  0  0  0  0
    0.0000    0.0000    0.0000 C   0  0  0  0  0  0  0  0  0  0  0  0
    0.0000    0.0000    0.0000 N   0  0  0  0  0  0  0  0  0  0  0  0
    0.0000    0.0000    0.0000 N   0  0  0  0  0  0  0  0  0  0  0  0
    0.0000    0.0000    0.0000 C   0  0  0  0  0  0  0  0  0  0  0  0
    0.0000    0.0000    0.0000 N   0  0  0  0  0  0  0  0  0  0  0  0
    0.0000    0.0000    0.0000 C   0  0  0  0  0  0  0  0  0  0  0  0
  1  2  1  0
  2  3  2  0
  3  4  1  0
  4  5  1  0
  5  6  1  0
  6  7  2  0
  7  8  1  0
  8  9  2  0
  9 10  1  0
  9 11  1  0
 11 12  2  0
  3 13  1  0
 13 14  2  0
 14 15  1  0
 15 16  2  0
 16 17  1  0
 17 18  1  0
 17 19  2  0
 19 20  1  0
 20 21  1  0
 20 22  2  0
 22  2  1  0
 12  6  1  0
 22 15  1  0
M  END
>  <pIC50>  (190) 
7.57

>  <ChEMBL_ID>  (190) 
CHEMBL23416

>  <document_journal>  (190) 
J. Med. Chem.

>  <bao_endpoint>  (190) 
BAO_0000190

>  <potential_duplicate>  (190) 
False

>  <uo_units>  (190) 
UO_0000065

>  <canonical_smiles>  (190) 
Cc1c(CNc2ccc(Cl)cc2)cnc3nc(N)nc(N)c13

>  <parent_molecule_chembl_id>  (190) 
CHEMBL23416

>  <assay_type>  (190) 
B

>  <src_id>  (190) 
1

>  <ligand_efficiency>  (190) 
{u'le': u'0.47', u'bei': u'24.04', u'sei': u'7.37', u'lle': u'5.03'}

>  <standard_flag>  (190) 
True

>  <molecule_chembl_id>  (190) 
CHEMBL23416

>  <target_organism>  (190) 
Homo sapiens

>  <standard_units>  (190) 
nM

>  <record_id>  (190) 
292893

>  <document_chembl_id>  (190) 
CHEMBL1135401

>  <bao_format>  (190) 
BAO_0000357

>  <data_validity_description>  (190) 
None

>  <activity_id>  (190) 
874724

>  <standard_type>  (190) 
IC50

>  <target_chembl_id>  (190) 
CHEMBL202

>  <data_validity_comment>  (190) 
None

>  <published_value>  (190) 
27

>  <document_year>  (190) 
2002

>  <target_pref_name>  (190) 
Dihydrofolate reductase

>  <assay_chembl_id>  (190) 
CHEMBL669986

>  <standard_relation>  (190) 
=

>  <assay_description>  (190) 
Antimycobacterial activity against human dihydrofolate reductase (hDHFR)

>  <published_relation>  (190) 
=

>  <standard_value>  (190) 
27

>  <qudt_units>  (190) 
http://www.openphacts.org/units/Nanomolar

>  <target_tax_id>  (190) 
9606

>  <bao_label>  (190) 
single protein format

>  <published_units>  (190) 
nM

>  <pchembl_value>  (190) 
7.57

>  <published_type>  (190) 
IC50

>  <activity_comment>  (190) 
None

$$$$

     RDKit          

 26 28  0  0  0  0  0  0  0  0999 V2000
    0.0000    0.0000    0.0000 C   0  0  0  0  0  0  0  0  0  0  0  0
    0.0000    0.0000    0.0000 O   0  0  0  0  0  0  0  0  0  0  0  0
    0.0000    0.0000    0.0000 C   0  0  0  0  0  0  0  0  0  0  0  0
    0.0000    0.0000    0.0000 C   0  0  0  0  0  0  0  0  0  0  0  0
    0.0000    0.0000    0.0000 C   0  0  0  0  0  0  0  0  0  0  0  0
    0.0000    0.0000    0.0000 N   0  0  0  0  0  0  0  0  0  0  0  0
    0.0000    0.0000    0.0000 C   0  0  0  0  0  0  0  0  0  0  0  0
    0.0000    0.0000    0.0000 C   0  0  0  0  0  0  0  0  0  0  0  0
    0.0000    0.0000    0.0000 C   0  0  0  0  0  0  0  0  0  0  0  0
    0.0000    0.0000    0.0000 N   0  0  0  0  0  0  0  0  0  0  0  0
    0.0000    0.0000    0.0000 C   0  0  0  0  0  0  0  0  0  0  0  0
    0.0000    0.0000    0.0000 N   0  0  0  0  0  0  0  0  0  0  0  0
    0.0000    0.0000    0.0000 C   0  0  0  0  0  0  0  0  0  0  0  0
    0.0000    0.0000    0.0000 N   0  0  0  0  0  0  0  0  0  0  0  0
    0.0000    0.0000    0.0000 N   0  0  0  0  0  0  0  0  0  0  0  0
    0.0000    0.0000    0.0000 C   0  0  0  0  0  0  0  0  0  0  0  0
    0.0000    0.0000    0.0000 N   0  0  0  0  0  0  0  0  0  0  0  0
    0.0000    0.0000    0.0000 C   0  0  0  0  0  0  0  0  0  0  0  0
    0.0000    0.0000    0.0000 C   0  0  0  0  0  0  0  0  0  0  0  0
    0.0000    0.0000    0.0000 C   0  0  0  0  0  0  0  0  0  0  0  0
    0.0000    0.0000    0.0000 C   0  0  0  0  0  0  0  0  0  0  0  0
    0.0000    0.0000    0.0000 O   0  0  0  0  0  0  0  0  0  0  0  0
    0.0000    0.0000    0.0000 C   0  0  0  0  0  0  0  0  0  0  0  0
    0.0000    0.0000    0.0000 C   0  0  0  0  0  0  0  0  0  0  0  0
    0.0000    0.0000    0.0000 O   0  0  0  0  0  0  0  0  0  0  0  0
    0.0000    0.0000    0.0000 C   0  0  0  0  0  0  0  0  0  0  0  0
  1  2  1  0
  2  3  1  0
  3  4  2  0
  4  5  1  0
  5  6  1  0
  6  7  1  0
  7  8  1  0
  8  9  2  0
  9 10  1  0
 10 11  2  0
 11 12  1  0
 12 13  2  0
 13 14  1  0
 13 15  1  0
 15 16  2  0
 16 17  1  0
 16 18  1  0
 18 19  2  0
  5 20  2  0
 20 21  1  0
 21 22  1  0
 22 23  1  0
 21 24  2  0
 24 25  1  0
 25 26  1  0
 24  3  1  0
 19  8  1  0
 18 11  1  0
M  END
>  <pIC50>  (191) 
5.41

>  <ChEMBL_ID>  (191) 
CHEMBL23288

>  <document_journal>  (191) 
J. Med. Chem.

>  <bao_endpoint>  (191) 
BAO_0000190

>  <potential_duplicate>  (191) 
False

>  <uo_units>  (191) 
UO_0000065

>  <canonical_smiles>  (191) 
COc1cc(NCc2cnc3nc(N)nc(N)c3c2)cc(OC)c1OC

>  <parent_molecule_chembl_id>  (191) 
CHEMBL23288

>  <assay_type>  (191) 
B

>  <src_id>  (191) 
1

>  <ligand_efficiency>  (191) 
{u'le': u'0.28', u'bei': u'15.18', u'sei': u'4.15', u'lle': u'4.07'}

>  <standard_flag>  (191) 
True

>  <molecule_chembl_id>  (191) 
CHEMBL23288

>  <target_organism>  (191) 
Homo sapiens

>  <standard_units>  (191) 
nM

>  <record_id>  (191) 
292934

>  <document_chembl_id>  (191) 
CHEMBL1135401

>  <bao_format>  (191) 
BAO_0000357

>  <data_validity_description>  (191) 
None

>  <activity_id>  (191) 
874728

>  <standard_type>  (191) 
IC50

>  <target_chembl_id>  (191) 
CHEMBL202

>  <data_validity_comment>  (191) 
None

>  <published_value>  (191) 
3900

>  <document_year>  (191) 
2002

>  <target_pref_name>  (191) 
Dihydrofolate reductase

>  <assay_chembl_id>  (191) 
CHEMBL669986

>  <standard_relation>  (191) 
=

>  <assay_description>  (191) 
Antimycobacterial activity against human dihydrofolate reductase (hDHFR)

>  <published_relation>  (191) 
=

>  <standard_value>  (191) 
3900

>  <qudt_units>  (191) 
http://www.openphacts.org/units/Nanomolar

>  <target_tax_id>  (191) 
9606

>  <bao_label>  (191) 
single protein format

>  <published_units>  (191) 
nM

>  <pchembl_value>  (191) 
5.41

>  <published_type>  (191) 
IC50

>  <activity_comment>  (191) 
None

$$$$

     RDKit          

 25 28  0  0  0  0  0  0  0  0999 V2000
    0.0000    0.0000    0.0000 C   0  0  0  0  0  0  0  0  0  0  0  0
    0.0000    0.0000    0.0000 C   0  0  0  0  0  0  0  0  0  0  0  0
    0.0000    0.0000    0.0000 C   0  0  0  0  0  0  0  0  0  0  0  0
    0.0000    0.0000    0.0000 C   0  0  0  0  0  0  0  0  0  0  0  0
    0.0000    0.0000    0.0000 N   0  0  0  0  0  0  0  0  0  0  0  0
    0.0000    0.0000    0.0000 C   0  0  0  0  0  0  0  0  0  0  0  0
    0.0000    0.0000    0.0000 C   0  0  0  0  0  0  0  0  0  0  0  0
    0.0000    0.0000    0.0000 C   0  0  0  0  0  0  0  0  0  0  0  0
    0.0000    0.0000    0.0000 C   0  0  0  0  0  0  0  0  0  0  0  0
    0.0000    0.0000    0.0000 C   0  0  0  0  0  0  0  0  0  0  0  0
    0.0000    0.0000    0.0000 C   0  0  0  0  0  0  0  0  0  0  0  0
    0.0000    0.0000    0.0000 C   0  0  0  0  0  0  0  0  0  0  0  0
    0.0000    0.0000    0.0000 C   0  0  0  0  0  0  0  0  0  0  0  0
    0.0000    0.0000    0.0000 C   0  0  0  0  0  0  0  0  0  0  0  0
    0.0000    0.0000    0.0000 C   0  0  0  0  0  0  0  0  0  0  0  0
    0.0000    0.0000    0.0000 C   0  0  0  0  0  0  0  0  0  0  0  0
    0.0000    0.0000    0.0000 N   0  0  0  0  0  0  0  0  0  0  0  0
    0.0000    0.0000    0.0000 C   0  0  0  0  0  0  0  0  0  0  0  0
    0.0000    0.0000    0.0000 N   0  0  0  0  0  0  0  0  0  0  0  0
    0.0000    0.0000    0.0000 C   0  0  0  0  0  0  0  0  0  0  0  0
    0.0000    0.0000    0.0000 N   0  0  0  0  0  0  0  0  0  0  0  0
    0.0000    0.0000    0.0000 N   0  0  0  0  0  0  0  0  0  0  0  0
    0.0000    0.0000    0.0000 C   0  0  0  0  0  0  0  0  0  0  0  0
    0.0000    0.0000    0.0000 N   0  0  0  0  0  0  0  0  0  0  0  0
    0.0000    0.0000    0.0000 C   0  0  0  0  0  0  0  0  0  0  0  0
  1  2  1  0
  2  3  2  0
  3  4  1  0
  4  5  1  0
  5  6  1  0
  6  7  2  0
  7  8  1  0
  8  9  2  0
  9 10  1  0
 10 11  2  0
 11 12  1  0
 12 13  2  0
 13 14  1  0
 14 15  2  0
  3 16  1  0
 16 17  2  0
 17 18  1  0
 18 19  2  0
 19 20  1  0
 20 21  1  0
 20 22  2  0
 22 23  1  0
 23 24  1  0
 23 25  2  0
 25  2  1  0
 15  6  1  0
 15 10  1  0
 25 18  1  0
M  END
>  <pIC50>  (192) 
8.37

>  <ChEMBL_ID>  (192) 
CHEMBL23867

>  <document_journal>  (192) 
J. Med. Chem.

>  <bao_endpoint>  (192) 
BAO_0000190

>  <potential_duplicate>  (192) 
False

>  <uo_units>  (192) 
UO_0000065

>  <canonical_smiles>  (192) 
Cc1c(CNc2cccc3ccccc23)cnc4nc(N)nc(N)c14

>  <parent_molecule_chembl_id>  (192) 
CHEMBL23867

>  <assay_type>  (192) 
B

>  <src_id>  (192) 
1

>  <ligand_efficiency>  (192) 
{u'le': u'0.46', u'bei': u'25.32', u'sei': u'8.14', u'lle': u'5.58'}

>  <standard_flag>  (192) 
True

>  <molecule_chembl_id>  (192) 
CHEMBL23867

>  <target_organism>  (192) 
Homo sapiens

>  <standard_units>  (192) 
nM

>  <record_id>  (192) 
292881

>  <document_chembl_id>  (192) 
CHEMBL1135401

>  <bao_format>  (192) 
BAO_0000357

>  <data_validity_description>  (192) 
None

>  <activity_id>  (192) 
874756

>  <standard_type>  (192) 
IC50

>  <target_chembl_id>  (192) 
CHEMBL202

>  <data_validity_comment>  (192) 
None

>  <published_value>  (192) 
4.3

>  <document_year>  (192) 
2002

>  <target_pref_name>  (192) 
Dihydrofolate reductase

>  <assay_chembl_id>  (192) 
CHEMBL669986

>  <standard_relation>  (192) 
=

>  <assay_description>  (192) 
Antimycobacterial activity against human dihydrofolate reductase (hDHFR)

>  <published_relation>  (192) 
=

>  <standard_value>  (192) 
4.3

>  <qudt_units>  (192) 
http://www.openphacts.org/units/Nanomolar

>  <target_tax_id>  (192) 
9606

>  <bao_label>  (192) 
single protein format

>  <published_units>  (192) 
nM

>  <pchembl_value>  (192) 
8.37

>  <published_type>  (192) 
IC50

>  <activity_comment>  (192) 
None

$$$$

     RDKit          

 25 27  0  0  0  0  0  0  0  0999 V2000
    0.0000    0.0000    0.0000 C   0  0  0  0  0  0  0  0  0  0  0  0
    0.0000    0.0000    0.0000 C   0  0  0  0  0  0  0  0  0  0  0  0
    0.0000    0.0000    0.0000 C   0  0  0  0  0  0  0  0  0  0  0  0
    0.0000    0.0000    0.0000 C   0  0  0  0  0  0  0  0  0  0  0  0
    0.0000    0.0000    0.0000 N   0  0  0  0  0  0  0  0  0  0  0  0
    0.0000    0.0000    0.0000 C   0  0  0  0  0  0  0  0  0  0  0  0
    0.0000    0.0000    0.0000 C   0  0  0  0  0  0  0  0  0  0  0  0
    0.0000    0.0000    0.0000 C   0  0  0  0  0  0  0  0  0  0  0  0
    0.0000    0.0000    0.0000 C   0  0  0  0  0  0  0  0  0  0  0  0
    0.0000    0.0000    0.0000 C   0  0  0  0  0  0  0  0  0  0  0  0
    0.0000    0.0000    0.0000 C   0  0  0  0  0  0  0  0  0  0  0  0
    0.0000    0.0000    0.0000 O   0  0  0  0  0  0  0  0  0  0  0  0
    0.0000    0.0000    0.0000 C   0  0  0  0  0  0  0  0  0  0  0  0
    0.0000    0.0000    0.0000 F   0  0  0  0  0  0  0  0  0  0  0  0
    0.0000    0.0000    0.0000 F   0  0  0  0  0  0  0  0  0  0  0  0
    0.0000    0.0000    0.0000 C   0  0  0  0  0  0  0  0  0  0  0  0
    0.0000    0.0000    0.0000 N   0  0  0  0  0  0  0  0  0  0  0  0
    0.0000    0.0000    0.0000 C   0  0  0  0  0  0  0  0  0  0  0  0
    0.0000    0.0000    0.0000 N   0  0  0  0  0  0  0  0  0  0  0  0
    0.0000    0.0000    0.0000 C   0  0  0  0  0  0  0  0  0  0  0  0
    0.0000    0.0000    0.0000 N   0  0  0  0  0  0  0  0  0  0  0  0
    0.0000    0.0000    0.0000 N   0  0  0  0  0  0  0  0  0  0  0  0
    0.0000    0.0000    0.0000 C   0  0  0  0  0  0  0  0  0  0  0  0
    0.0000    0.0000    0.0000 N   0  0  0  0  0  0  0  0  0  0  0  0
    0.0000    0.0000    0.0000 C   0  0  0  0  0  0  0  0  0  0  0  0
  1  2  1  0
  2  3  2  0
  3  4  1  0
  4  5  1  0
  5  6  1  0
  6  7  2  0
  7  8  1  0
  8  9  2  0
  9 10  1  0
 10 11  2  0
 11 12  1  0
 12 13  1  0
 13 14  1  0
 13 15  1  0
  3 16  1  0
 16 17  2  0
 17 18  1  0
 18 19  2  0
 19 20  1  0
 20 21  1  0
 20 22  2  0
 22 23  1  0
 23 24  1  0
 23 25  2  0
 25  2  1  0
 11  6  1  0
 25 18  1  0
M  END
>  <pIC50>  (193) 
6.56

>  <ChEMBL_ID>  (193) 
CHEMBL347088

>  <document_journal>  (193) 
J. Med. Chem.

>  <bao_endpoint>  (193) 
BAO_0000190

>  <potential_duplicate>  (193) 
False

>  <uo_units>  (193) 
UO_0000065

>  <canonical_smiles>  (193) 
Cc1c(CNc2ccccc2OC(F)F)cnc3nc(N)nc(N)c13

>  <parent_molecule_chembl_id>  (193) 
CHEMBL347088

>  <assay_type>  (193) 
B

>  <src_id>  (193) 
1

>  <ligand_efficiency>  (193) 
{u'le': u'0.36', u'bei': u'18.93', u'sei': u'5.86', u'lle': u'3.88'}

>  <standard_flag>  (193) 
True

>  <molecule_chembl_id>  (193) 
CHEMBL347088

>  <target_organism>  (193) 
Homo sapiens

>  <standard_units>  (193) 
nM

>  <record_id>  (193) 
292942

>  <document_chembl_id>  (193) 
CHEMBL1135401

>  <bao_format>  (193) 
BAO_0000357

>  <data_validity_description>  (193) 
None

>  <activity_id>  (193) 
875918

>  <standard_type>  (193) 
IC50

>  <target_chembl_id>  (193) 
CHEMBL202

>  <data_validity_comment>  (193) 
None

>  <published_value>  (193) 
277

>  <document_year>  (193) 
2002

>  <target_pref_name>  (193) 
Dihydrofolate reductase

>  <assay_chembl_id>  (193) 
CHEMBL669986

>  <standard_relation>  (193) 
=

>  <assay_description>  (193) 
Antimycobacterial activity against human dihydrofolate reductase (hDHFR)

>  <published_relation>  (193) 
=

>  <standard_value>  (193) 
277

>  <qudt_units>  (193) 
http://www.openphacts.org/units/Nanomolar

>  <target_tax_id>  (193) 
9606

>  <bao_label>  (193) 
single protein format

>  <published_units>  (193) 
nM

>  <pchembl_value>  (193) 
6.56

>  <published_type>  (193) 
IC50

>  <activity_comment>  (193) 
None

$$$$

     RDKit          

 28 30  0  0  0  0  0  0  0  0999 V2000
    0.0000    0.0000    0.0000 C   0  0  0  0  0  0  0  0  0  0  0  0
    0.0000    0.0000    0.0000 O   0  0  0  0  0  0  0  0  0  0  0  0
    0.0000    0.0000    0.0000 C   0  0  0  0  0  0  0  0  0  0  0  0
    0.0000    0.0000    0.0000 C   0  0  0  0  0  0  0  0  0  0  0  0
    0.0000    0.0000    0.0000 C   0  0  0  0  0  0  0  0  0  0  0  0
    0.0000    0.0000    0.0000 C   0  0  0  0  0  0  0  0  0  0  0  0
    0.0000    0.0000    0.0000 C   0  0  0  0  0  0  0  0  0  0  0  0
    0.0000    0.0000    0.0000 C   0  0  0  0  0  0  0  0  0  0  0  0
    0.0000    0.0000    0.0000 N   0  0  0  0  0  0  0  0  0  0  0  0
    0.0000    0.0000    0.0000 C   0  0  0  0  0  0  0  0  0  0  0  0
    0.0000    0.0000    0.0000 C   0  0  0  0  0  0  0  0  0  0  0  0
    0.0000    0.0000    0.0000 C   0  0  0  0  0  0  0  0  0  0  0  0
    0.0000    0.0000    0.0000 C   0  0  0  0  0  0  0  0  0  0  0  0
    0.0000    0.0000    0.0000 N   0  0  0  0  0  0  0  0  0  0  0  0
    0.0000    0.0000    0.0000 C   0  0  0  0  0  0  0  0  0  0  0  0
    0.0000    0.0000    0.0000 N   0  0  0  0  0  0  0  0  0  0  0  0
    0.0000    0.0000    0.0000 C   0  0  0  0  0  0  0  0  0  0  0  0
    0.0000    0.0000    0.0000 N   0  0  0  0  0  0  0  0  0  0  0  0
    0.0000    0.0000    0.0000 N   0  0  0  0  0  0  0  0  0  0  0  0
    0.0000    0.0000    0.0000 C   0  0  0  0  0  0  0  0  0  0  0  0
    0.0000    0.0000    0.0000 N   0  0  0  0  0  0  0  0  0  0  0  0
    0.0000    0.0000    0.0000 C   0  0  0  0  0  0  0  0  0  0  0  0
    0.0000    0.0000    0.0000 C   0  0  0  0  0  0  0  0  0  0  0  0
    0.0000    0.0000    0.0000 C   0  0  0  0  0  0  0  0  0  0  0  0
    0.0000    0.0000    0.0000 C   0  0  0  0  0  0  0  0  0  0  0  0
    0.0000    0.0000    0.0000 F   0  0  0  0  0  0  0  0  0  0  0  0
    0.0000    0.0000    0.0000 F   0  0  0  0  0  0  0  0  0  0  0  0
    0.0000    0.0000    0.0000 F   0  0  0  0  0  0  0  0  0  0  0  0
  1  2  1  0
  2  3  1  0
  3  4  2  0
  4  5  1  0
  5  6  2  0
  6  7  1  0
  7  8  2  0
  8  9  1  0
  9 10  1  0
  9 11  1  0
 11 12  1  0
 12 13  2  0
 13 14  1  0
 14 15  2  0
 15 16  1  0
 16 17  2  0
 17 18  1  0
 17 19  1  0
 19 20  2  0
 20 21  1  0
 20 22  1  0
 22 23  2  0
 23 24  1  0
  6 25  1  0
 25 26  1  0
 25 27  1  0
 25 28  1  0
  8  3  1  0
 23 12  1  0
 22 15  1  0
M  END
>  <pIC50>  (194) 
7.44

>  <ChEMBL_ID>  (194) 
CHEMBL23076

>  <document_journal>  (194) 
J. Med. Chem.

>  <bao_endpoint>  (194) 
BAO_0000190

>  <potential_duplicate>  (194) 
False

>  <uo_units>  (194) 
UO_0000065

>  <canonical_smiles>  (194) 
COc1ccc(cc1N(C)Cc2cnc3nc(N)nc(N)c3c2C)C(F)(F)F

>  <parent_molecule_chembl_id>  (194) 
CHEMBL23076

>  <assay_type>  (194) 
B

>  <src_id>  (194) 
1

>  <ligand_efficiency>  (194) 
{u'le': u'0.36', u'bei': u'18.97', u'sei': u'7.21', u'lle': u'4.28'}

>  <standard_flag>  (194) 
True

>  <molecule_chembl_id>  (194) 
CHEMBL23076

>  <target_organism>  (194) 
Homo sapiens

>  <standard_units>  (194) 
nM

>  <record_id>  (194) 
292941

>  <document_chembl_id>  (194) 
CHEMBL1135401

>  <bao_format>  (194) 
BAO_0000357

>  <data_validity_description>  (194) 
None

>  <activity_id>  (194) 
875922

>  <standard_type>  (194) 
IC50

>  <target_chembl_id>  (194) 
CHEMBL202

>  <data_validity_comment>  (194) 
None

>  <published_value>  (194) 
36

>  <document_year>  (194) 
2002

>  <target_pref_name>  (194) 
Dihydrofolate reductase

>  <assay_chembl_id>  (194) 
CHEMBL669986

>  <standard_relation>  (194) 
=

>  <assay_description>  (194) 
Antimycobacterial activity against human dihydrofolate reductase (hDHFR)

>  <published_relation>  (194) 
=

>  <standard_value>  (194) 
36

>  <qudt_units>  (194) 
http://www.openphacts.org/units/Nanomolar

>  <target_tax_id>  (194) 
9606

>  <bao_label>  (194) 
single protein format

>  <published_units>  (194) 
nM

>  <pchembl_value>  (194) 
7.44

>  <published_type>  (194) 
IC50

>  <activity_comment>  (194) 
None

$$$$

     RDKit          

 23 25  0  0  0  0  0  0  0  0999 V2000
    0.0000    0.0000    0.0000 C   0  0  0  0  0  0  0  0  0  0  0  0
    0.0000    0.0000    0.0000 C   0  0  0  0  0  0  0  0  0  0  0  0
    0.0000    0.0000    0.0000 C   0  0  0  0  0  0  0  0  0  0  0  0
    0.0000    0.0000    0.0000 C   0  0  0  0  0  0  0  0  0  0  0  0
    0.0000    0.0000    0.0000 N   0  0  0  0  0  0  0  0  0  0  0  0
    0.0000    0.0000    0.0000 C   0  0  0  0  0  0  0  0  0  0  0  0
    0.0000    0.0000    0.0000 C   0  0  0  0  0  0  0  0  0  0  0  0
    0.0000    0.0000    0.0000 C   0  0  0  0  0  0  0  0  0  0  0  0
    0.0000    0.0000    0.0000 N   0  0  0  0  0  0  0  0  0  0  0  0
    0.0000    0.0000    0.0000 C   0  0  0  0  0  0  0  0  0  0  0  0
    0.0000    0.0000    0.0000 N   0  0  0  0  0  0  0  0  0  0  0  0
    0.0000    0.0000    0.0000 C   0  0  0  0  0  0  0  0  0  0  0  0
    0.0000    0.0000    0.0000 N   0  0  0  0  0  0  0  0  0  0  0  0
    0.0000    0.0000    0.0000 N   0  0  0  0  0  0  0  0  0  0  0  0
    0.0000    0.0000    0.0000 C   0  0  0  0  0  0  0  0  0  0  0  0
    0.0000    0.0000    0.0000 N   0  0  0  0  0  0  0  0  0  0  0  0
    0.0000    0.0000    0.0000 C   0  0  0  0  0  0  0  0  0  0  0  0
    0.0000    0.0000    0.0000 C   0  0  0  0  0  0  0  0  0  0  0  0
    0.0000    0.0000    0.0000 C   0  0  0  0  0  0  0  0  0  0  0  0
    0.0000    0.0000    0.0000 C   0  0  0  0  0  0  0  0  0  0  0  0
    0.0000    0.0000    0.0000 C   0  0  0  0  0  0  0  0  0  0  0  0
    0.0000    0.0000    0.0000 C   0  0  0  0  0  0  0  0  0  0  0  0
    0.0000    0.0000    0.0000 Br  0  0  0  0  0  0  0  0  0  0  0  0
  1  2  1  0
  2  3  2  0
  3  4  1  0
  4  5  1  0
  5  6  1  0
  6  7  1  0
  7  8  2  0
  8  9  1  0
  9 10  2  0
 10 11  1  0
 11 12  2  0
 12 13  1  0
 12 14  1  0
 14 15  2  0
 15 16  1  0
 15 17  1  0
 17 18  2  0
 18 19  1  0
  4 20  2  0
 20 21  1  0
 21 22  2  0
 22 23  1  0
 22  2  1  0
 18  7  1  0
 17 10  1  0
M  END
>  <pIC50>  (195) 
8.22

>  <ChEMBL_ID>  (195) 
CHEMBL150382

>  <document_journal>  (195) 
J. Med. Chem.

>  <bao_endpoint>  (195) 
BAO_0000190

>  <potential_duplicate>  (195) 
False

>  <uo_units>  (195) 
UO_0000065

>  <canonical_smiles>  (195) 
Cc1cc(NCc2cnc3nc(N)nc(N)c3c2C)ccc1Br

>  <parent_molecule_chembl_id>  (195) 
CHEMBL150382

>  <assay_type>  (195) 
B

>  <src_id>  (195) 
1

>  <ligand_efficiency>  (195) 
{u'le': u'0.49', u'bei': u'22.01', u'sei': u'8', u'lle': u'5.1'}

>  <standard_flag>  (195) 
True

>  <molecule_chembl_id>  (195) 
CHEMBL150382

>  <target_organism>  (195) 
Homo sapiens

>  <standard_units>  (195) 
nM

>  <record_id>  (195) 
292887

>  <document_chembl_id>  (195) 
CHEMBL1135401

>  <bao_format>  (195) 
BAO_0000357

>  <data_validity_description>  (195) 
None

>  <activity_id>  (195) 
875926

>  <standard_type>  (195) 
IC50

>  <target_chembl_id>  (195) 
CHEMBL202

>  <data_validity_comment>  (195) 
None

>  <published_value>  (195) 
6.1

>  <document_year>  (195) 
2002

>  <target_pref_name>  (195) 
Dihydrofolate reductase

>  <assay_chembl_id>  (195) 
CHEMBL669986

>  <standard_relation>  (195) 
=

>  <assay_description>  (195) 
Antimycobacterial activity against human dihydrofolate reductase (hDHFR)

>  <published_relation>  (195) 
=

>  <standard_value>  (195) 
6.1

>  <qudt_units>  (195) 
http://www.openphacts.org/units/Nanomolar

>  <target_tax_id>  (195) 
9606

>  <bao_label>  (195) 
single protein format

>  <published_units>  (195) 
nM

>  <pchembl_value>  (195) 
8.22

>  <published_type>  (195) 
IC50

>  <activity_comment>  (195) 
None

$$$$

     RDKit          

 23 25  0  0  0  0  0  0  0  0999 V2000
    0.0000    0.0000    0.0000 C   0  0  0  0  0  0  0  0  0  0  0  0
    0.0000    0.0000    0.0000 C   0  0  0  0  0  0  0  0  0  0  0  0
    0.0000    0.0000    0.0000 C   0  0  0  0  0  0  0  0  0  0  0  0
    0.0000    0.0000    0.0000 C   0  0  0  0  0  0  0  0  0  0  0  0
    0.0000    0.0000    0.0000 N   0  0  0  0  0  0  0  0  0  0  0  0
    0.0000    0.0000    0.0000 C   0  0  0  0  0  0  0  0  0  0  0  0
    0.0000    0.0000    0.0000 C   0  0  0  0  0  0  0  0  0  0  0  0
    0.0000    0.0000    0.0000 C   0  0  0  0  0  0  0  0  0  0  0  0
    0.0000    0.0000    0.0000 C   0  0  0  0  0  0  0  0  0  0  0  0
    0.0000    0.0000    0.0000 Cl  0  0  0  0  0  0  0  0  0  0  0  0
    0.0000    0.0000    0.0000 C   0  0  0  0  0  0  0  0  0  0  0  0
    0.0000    0.0000    0.0000 Cl  0  0  0  0  0  0  0  0  0  0  0  0
    0.0000    0.0000    0.0000 C   0  0  0  0  0  0  0  0  0  0  0  0
    0.0000    0.0000    0.0000 C   0  0  0  0  0  0  0  0  0  0  0  0
    0.0000    0.0000    0.0000 N   0  0  0  0  0  0  0  0  0  0  0  0
    0.0000    0.0000    0.0000 C   0  0  0  0  0  0  0  0  0  0  0  0
    0.0000    0.0000    0.0000 N   0  0  0  0  0  0  0  0  0  0  0  0
    0.0000    0.0000    0.0000 C   0  0  0  0  0  0  0  0  0  0  0  0
    0.0000    0.0000    0.0000 N   0  0  0  0  0  0  0  0  0  0  0  0
    0.0000    0.0000    0.0000 N   0  0  0  0  0  0  0  0  0  0  0  0
    0.0000    0.0000    0.0000 C   0  0  0  0  0  0  0  0  0  0  0  0
    0.0000    0.0000    0.0000 N   0  0  0  0  0  0  0  0  0  0  0  0
    0.0000    0.0000    0.0000 C   0  0  0  0  0  0  0  0  0  0  0  0
  1  2  1  0
  2  3  2  0
  3  4  1  0
  4  5  1  0
  5  6  1  0
  6  7  2  0
  7  8  1  0
  8  9  2  0
  9 10  1  0
  9 11  1  0
 11 12  1  0
 11 13  2  0
  3 14  1  0
 14 15  2  0
 15 16  1  0
 16 17  2  0
 17 18  1  0
 18 19  1  0
 18 20  2  0
 20 21  1  0
 21 22  1  0
 21 23  2  0
 23  2  1  0
 13  6  1  0
 23 16  1  0
M  END
>  <pIC50>  (196) 
8.3

>  <ChEMBL_ID>  (196) 
CHEMBL81820

>  <document_journal>  (196) 
J. Med. Chem.

>  <bao_endpoint>  (196) 
BAO_0000190

>  <potential_duplicate>  (196) 
False

>  <uo_units>  (196) 
UO_0000065

>  <canonical_smiles>  (196) 
Cc1c(CNc2ccc(Cl)c(Cl)c2)cnc3nc(N)nc(N)c13

>  <parent_molecule_chembl_id>  (196) 
CHEMBL81820

>  <assay_type>  (196) 
B

>  <src_id>  (196) 
1

>  <ligand_efficiency>  (196) 
{u'le': u'0.49', u'bei': u'23.77', u'sei': u'8.08', u'lle': u'5.09'}

>  <standard_flag>  (196) 
True

>  <molecule_chembl_id>  (196) 
CHEMBL81820

>  <target_organism>  (196) 
Homo sapiens

>  <standard_units>  (196) 
nM

>  <record_id>  (196) 
292896

>  <document_chembl_id>  (196) 
CHEMBL1135401

>  <bao_format>  (196) 
BAO_0000357

>  <data_validity_description>  (196) 
None

>  <activity_id>  (196) 
875930

>  <standard_type>  (196) 
IC50

>  <target_chembl_id>  (196) 
CHEMBL202

>  <data_validity_comment>  (196) 
None

>  <published_value>  (196) 
5

>  <document_year>  (196) 
2002

>  <target_pref_name>  (196) 
Dihydrofolate reductase

>  <assay_chembl_id>  (196) 
CHEMBL669986

>  <standard_relation>  (196) 
=

>  <assay_description>  (196) 
Antimycobacterial activity against human dihydrofolate reductase (hDHFR)

>  <published_relation>  (196) 
=

>  <standard_value>  (196) 
5

>  <qudt_units>  (196) 
http://www.openphacts.org/units/Nanomolar

>  <target_tax_id>  (196) 
9606

>  <bao_label>  (196) 
single protein format

>  <published_units>  (196) 
nM

>  <pchembl_value>  (196) 
8.3

>  <published_type>  (196) 
IC50

>  <activity_comment>  (196) 
None

$$$$

     RDKit          

 25 28  0  0  0  0  0  0  0  0999 V2000
    0.0000    0.0000    0.0000 C   0  0  0  0  0  0  0  0  0  0  0  0
    0.0000    0.0000    0.0000 C   0  0  0  0  0  0  0  0  0  0  0  0
    0.0000    0.0000    0.0000 C   0  0  0  0  0  0  0  0  0  0  0  0
    0.0000    0.0000    0.0000 C   0  0  0  0  0  0  0  0  0  0  0  0
    0.0000    0.0000    0.0000 N   0  0  0  0  0  0  0  0  0  0  0  0
    0.0000    0.0000    0.0000 C   0  0  0  0  0  0  0  0  0  0  0  0
    0.0000    0.0000    0.0000 C   0  0  0  0  0  0  0  0  0  0  0  0
    0.0000    0.0000    0.0000 C   0  0  0  0  0  0  0  0  0  0  0  0
    0.0000    0.0000    0.0000 C   0  0  0  0  0  0  0  0  0  0  0  0
    0.0000    0.0000    0.0000 C   0  0  0  0  0  0  0  0  0  0  0  0
    0.0000    0.0000    0.0000 C   0  0  0  0  0  0  0  0  0  0  0  0
    0.0000    0.0000    0.0000 C   0  0  0  0  0  0  0  0  0  0  0  0
    0.0000    0.0000    0.0000 C   0  0  0  0  0  0  0  0  0  0  0  0
    0.0000    0.0000    0.0000 C   0  0  0  0  0  0  0  0  0  0  0  0
    0.0000    0.0000    0.0000 C   0  0  0  0  0  0  0  0  0  0  0  0
    0.0000    0.0000    0.0000 C   0  0  0  0  0  0  0  0  0  0  0  0
    0.0000    0.0000    0.0000 N   0  0  0  0  0  0  0  0  0  0  0  0
    0.0000    0.0000    0.0000 C   0  0  0  0  0  0  0  0  0  0  0  0
    0.0000    0.0000    0.0000 N   0  0  0  0  0  0  0  0  0  0  0  0
    0.0000    0.0000    0.0000 C   0  0  0  0  0  0  0  0  0  0  0  0
    0.0000    0.0000    0.0000 N   0  0  0  0  0  0  0  0  0  0  0  0
    0.0000    0.0000    0.0000 N   0  0  0  0  0  0  0  0  0  0  0  0
    0.0000    0.0000    0.0000 C   0  0  0  0  0  0  0  0  0  0  0  0
    0.0000    0.0000    0.0000 N   0  0  0  0  0  0  0  0  0  0  0  0
    0.0000    0.0000    0.0000 C   0  0  0  0  0  0  0  0  0  0  0  0
  1  2  1  0
  2  3  2  0
  3  4  1  0
  4  5  1  0
  5  6  1  0
  6  7  2  0
  7  8  1  0
  8  9  2  0
  9 10  1  0
 10 11  1  0
 11 12  1  0
 12 13  1  0
 13 14  1  0
 14 15  1  0
  3 16  1  0
 16 17  2  0
 17 18  1  0
 18 19  2  0
 19 20  1  0
 20 21  1  0
 20 22  2  0
 22 23  1  0
 23 24  1  0
 23 25  2  0
 25  2  1  0
 15  6  1  0
 15 10  2  0
 25 18  1  0
M  END
>  <pIC50>  (197) 
6.85

>  <ChEMBL_ID>  (197) 
CHEMBL282948

>  <document_journal>  (197) 
J. Med. Chem.

>  <bao_endpoint>  (197) 
BAO_0000190

>  <potential_duplicate>  (197) 
False

>  <uo_units>  (197) 
UO_0000065

>  <canonical_smiles>  (197) 
Cc1c(CNc2cccc3CCCCc23)cnc4nc(N)nc(N)c14

>  <parent_molecule_chembl_id>  (197) 
CHEMBL282948

>  <assay_type>  (197) 
B

>  <src_id>  (197) 
1

>  <ligand_efficiency>  (197) 
{u'le': u'0.37', u'bei': u'20.48', u'sei': u'6.67', u'lle': u'3.46'}

>  <standard_flag>  (197) 
True

>  <molecule_chembl_id>  (197) 
CHEMBL282948

>  <target_organism>  (197) 
Homo sapiens

>  <standard_units>  (197) 
nM

>  <record_id>  (197) 
292916

>  <document_chembl_id>  (197) 
CHEMBL1135401

>  <bao_format>  (197) 
BAO_0000357

>  <data_validity_description>  (197) 
None

>  <activity_id>  (197) 
875934

>  <standard_type>  (197) 
IC50

>  <target_chembl_id>  (197) 
CHEMBL202

>  <data_validity_comment>  (197) 
None

>  <published_value>  (197) 
142

>  <document_year>  (197) 
2002

>  <target_pref_name>  (197) 
Dihydrofolate reductase

>  <assay_chembl_id>  (197) 
CHEMBL669986

>  <standard_relation>  (197) 
=

>  <assay_description>  (197) 
Antimycobacterial activity against human dihydrofolate reductase (hDHFR)

>  <published_relation>  (197) 
=

>  <standard_value>  (197) 
142

>  <qudt_units>  (197) 
http://www.openphacts.org/units/Nanomolar

>  <target_tax_id>  (197) 
9606

>  <bao_label>  (197) 
single protein format

>  <published_units>  (197) 
nM

>  <pchembl_value>  (197) 
6.85

>  <published_type>  (197) 
IC50

>  <activity_comment>  (197) 
None

$$$$

     RDKit          

 25 28  0  0  0  0  0  0  0  0999 V2000
    0.0000    0.0000    0.0000 C   0  0  0  0  0  0  0  0  0  0  0  0
    0.0000    0.0000    0.0000 C   0  0  0  0  0  0  0  0  0  0  0  0
    0.0000    0.0000    0.0000 C   0  0  0  0  0  0  0  0  0  0  0  0
    0.0000    0.0000    0.0000 C   0  0  0  0  0  0  0  0  0  0  0  0
    0.0000    0.0000    0.0000 N   0  0  0  0  0  0  0  0  0  0  0  0
    0.0000    0.0000    0.0000 C   0  0  0  0  0  0  0  0  0  0  0  0
    0.0000    0.0000    0.0000 C   0  0  0  0  0  0  0  0  0  0  0  0
    0.0000    0.0000    0.0000 N   0  0  0  0  0  0  0  0  0  0  0  0
    0.0000    0.0000    0.0000 C   0  0  0  0  0  0  0  0  0  0  0  0
    0.0000    0.0000    0.0000 C   0  0  0  0  0  0  0  0  0  0  0  0
    0.0000    0.0000    0.0000 C   0  0  0  0  0  0  0  0  0  0  0  0
    0.0000    0.0000    0.0000 C   0  0  0  0  0  0  0  0  0  0  0  0
    0.0000    0.0000    0.0000 C   0  0  0  0  0  0  0  0  0  0  0  0
    0.0000    0.0000    0.0000 C   0  0  0  0  0  0  0  0  0  0  0  0
    0.0000    0.0000    0.0000 C   0  0  0  0  0  0  0  0  0  0  0  0
    0.0000    0.0000    0.0000 C   0  0  0  0  0  0  0  0  0  0  0  0
    0.0000    0.0000    0.0000 N   0  0  0  0  0  0  0  0  0  0  0  0
    0.0000    0.0000    0.0000 C   0  0  0  0  0  0  0  0  0  0  0  0
    0.0000    0.0000    0.0000 N   0  0  0  0  0  0  0  0  0  0  0  0
    0.0000    0.0000    0.0000 C   0  0  0  0  0  0  0  0  0  0  0  0
    0.0000    0.0000    0.0000 N   0  0  0  0  0  0  0  0  0  0  0  0
    0.0000    0.0000    0.0000 N   0  0  0  0  0  0  0  0  0  0  0  0
    0.0000    0.0000    0.0000 C   0  0  0  0  0  0  0  0  0  0  0  0
    0.0000    0.0000    0.0000 N   0  0  0  0  0  0  0  0  0  0  0  0
    0.0000    0.0000    0.0000 C   0  0  0  0  0  0  0  0  0  0  0  0
  1  2  1  0
  2  3  2  0
  3  4  1  0
  4  5  1  0
  5  6  1  0
  6  7  2  0
  7  8  1  0
  8  9  2  0
  9 10  1  0
 10 11  2  0
 11 12  1  0
 12 13  2  0
 13 14  1  0
 14 15  2  0
  3 16  1  0
 16 17  2  0
 17 18  1  0
 18 19  2  0
 19 20  1  0
 20 21  1  0
 20 22  2  0
 22 23  1  0
 23 24  1  0
 23 25  2  0
 25  2  1  0
 15  6  1  0
 14  9  1  0
 25 18  1  0
M  END
>  <pIC50>  (198) 
7.92

>  <ChEMBL_ID>  (198) 
CHEMBL149101

>  <document_journal>  (198) 
J. Med. Chem.

>  <bao_endpoint>  (198) 
BAO_0000190

>  <potential_duplicate>  (198) 
False

>  <uo_units>  (198) 
UO_0000065

>  <canonical_smiles>  (198) 
Cc1c(CNc2cnc3ccccc3c2)cnc4nc(N)nc(N)c14

>  <parent_molecule_chembl_id>  (198) 
CHEMBL149101

>  <assay_type>  (198) 
B

>  <src_id>  (198) 
1

>  <ligand_efficiency>  (198) 
{u'le': u'0.43', u'bei': u'23.9', u'sei': u'6.85', u'lle': u'5.86'}

>  <standard_flag>  (198) 
True

>  <molecule_chembl_id>  (198) 
CHEMBL149101

>  <target_organism>  (198) 
Homo sapiens

>  <standard_units>  (198) 
nM

>  <record_id>  (198) 
292914

>  <document_chembl_id>  (198) 
CHEMBL1135401

>  <bao_format>  (198) 
BAO_0000357

>  <data_validity_description>  (198) 
None

>  <activity_id>  (198) 
875938

>  <standard_type>  (198) 
IC50

>  <target_chembl_id>  (198) 
CHEMBL202

>  <data_validity_comment>  (198) 
None

>  <published_value>  (198) 
12

>  <document_year>  (198) 
2002

>  <target_pref_name>  (198) 
Dihydrofolate reductase

>  <assay_chembl_id>  (198) 
CHEMBL669986

>  <standard_relation>  (198) 
=

>  <assay_description>  (198) 
Antimycobacterial activity against human dihydrofolate reductase (hDHFR)

>  <published_relation>  (198) 
=

>  <standard_value>  (198) 
12

>  <qudt_units>  (198) 
http://www.openphacts.org/units/Nanomolar

>  <target_tax_id>  (198) 
9606

>  <bao_label>  (198) 
single protein format

>  <published_units>  (198) 
nM

>  <pchembl_value>  (198) 
7.92

>  <published_type>  (198) 
IC50

>  <activity_comment>  (198) 
None

$$$$

     RDKit          

 22 24  0  0  0  0  0  0  0  0999 V2000
    0.0000    0.0000    0.0000 C   0  0  0  0  0  0  0  0  0  0  0  0
    0.0000    0.0000    0.0000 C   0  0  0  0  0  0  0  0  0  0  0  0
    0.0000    0.0000    0.0000 C   0  0  0  0  0  0  0  0  0  0  0  0
    0.0000    0.0000    0.0000 C   0  0  0  0  0  0  0  0  0  0  0  0
    0.0000    0.0000    0.0000 S   0  0  0  0  0  0  0  0  0  0  0  0
    0.0000    0.0000    0.0000 C   0  0  0  0  0  0  0  0  0  0  0  0
    0.0000    0.0000    0.0000 C   0  0  0  0  0  0  0  0  0  0  0  0
    0.0000    0.0000    0.0000 C   0  0  0  0  0  0  0  0  0  0  0  0
    0.0000    0.0000    0.0000 C   0  0  0  0  0  0  0  0  0  0  0  0
    0.0000    0.0000    0.0000 Cl  0  0  0  0  0  0  0  0  0  0  0  0
    0.0000    0.0000    0.0000 C   0  0  0  0  0  0  0  0  0  0  0  0
    0.0000    0.0000    0.0000 C   0  0  0  0  0  0  0  0  0  0  0  0
    0.0000    0.0000    0.0000 C   0  0  0  0  0  0  0  0  0  0  0  0
    0.0000    0.0000    0.0000 N   0  0  0  0  0  0  0  0  0  0  0  0
    0.0000    0.0000    0.0000 C   0  0  0  0  0  0  0  0  0  0  0  0
    0.0000    0.0000    0.0000 N   0  0  0  0  0  0  0  0  0  0  0  0
    0.0000    0.0000    0.0000 C   0  0  0  0  0  0  0  0  0  0  0  0
    0.0000    0.0000    0.0000 N   0  0  0  0  0  0  0  0  0  0  0  0
    0.0000    0.0000    0.0000 N   0  0  0  0  0  0  0  0  0  0  0  0
    0.0000    0.0000    0.0000 C   0  0  0  0  0  0  0  0  0  0  0  0
    0.0000    0.0000    0.0000 N   0  0  0  0  0  0  0  0  0  0  0  0
    0.0000    0.0000    0.0000 C   0  0  0  0  0  0  0  0  0  0  0  0
  1  2  1  0
  2  3  2  0
  3  4  1  0
  4  5  1  0
  5  6  1  0
  6  7  2  0
  7  8  1  0
  8  9  2  0
  9 10  1  0
  9 11  1  0
 11 12  2  0
  3 13  1  0
 13 14  2  0
 14 15  1  0
 15 16  2  0
 16 17  1  0
 17 18  1  0
 17 19  2  0
 19 20  1  0
 20 21  1  0
 20 22  2  0
 22  2  1  0
 12  6  1  0
 22 15  1  0
M  END
>  <pIC50>  (199) 
6.23

>  <ChEMBL_ID>  (199) 
CHEMBL22677

>  <document_journal>  (199) 
J. Med. Chem.

>  <bao_endpoint>  (199) 
BAO_0000190

>  <potential_duplicate>  (199) 
False

>  <uo_units>  (199) 
UO_0000065

>  <canonical_smiles>  (199) 
Cc1c(CSc2ccc(Cl)cc2)cnc3nc(N)nc(N)c13

>  <parent_molecule_chembl_id>  (199) 
CHEMBL22677

>  <assay_type>  (199) 
B

>  <src_id>  (199) 
1

>  <ligand_efficiency>  (199) 
{u'le': u'0.39', u'bei': u'18.77', u'sei': u'5.37', u'lle': u'2.95'}

>  <standard_flag>  (199) 
True

>  <molecule_chembl_id>  (199) 
CHEMBL22677

>  <target_organism>  (199) 
Homo sapiens

>  <standard_units>  (199) 
nM

>  <record_id>  (199) 
292909

>  <document_chembl_id>  (199) 
CHEMBL1135401

>  <bao_format>  (199) 
BAO_0000357

>  <data_validity_description>  (199) 
None

>  <activity_id>  (199) 
875942

>  <standard_type>  (199) 
IC50

>  <target_chembl_id>  (199) 
CHEMBL202

>  <data_validity_comment>  (199) 
None

>  <published_value>  (199) 
590

>  <document_year>  (199) 
2002

>  <target_pref_name>  (199) 
Dihydrofolate reductase

>  <assay_chembl_id>  (199) 
CHEMBL669986

>  <standard_relation>  (199) 
=

>  <assay_description>  (199) 
Antimycobacterial activity against human dihydrofolate reductase (hDHFR)

>  <published_relation>  (199) 
=

>  <standard_value>  (199) 
590

>  <qudt_units>  (199) 
http://www.openphacts.org/units/Nanomolar

>  <target_tax_id>  (199) 
9606

>  <bao_label>  (199) 
single protein format

>  <published_units>  (199) 
nM

>  <pchembl_value>  (199) 
6.23

>  <published_type>  (199) 
IC50

>  <activity_comment>  (199) 
None

$$$$

     RDKit          

 22 24  0  0  0  0  0  0  0  0999 V2000
    0.0000    0.0000    0.0000 C   0  0  0  0  0  0  0  0  0  0  0  0
    0.0000    0.0000    0.0000 C   0  0  0  0  0  0  0  0  0  0  0  0
    0.0000    0.0000    0.0000 C   0  0  0  0  0  0  0  0  0  0  0  0
    0.0000    0.0000    0.0000 C   0  0  0  0  0  0  0  0  0  0  0  0
    0.0000    0.0000    0.0000 N   0  0  0  0  0  0  0  0  0  0  0  0
    0.0000    0.0000    0.0000 C   0  0  0  0  0  0  0  0  0  0  0  0
    0.0000    0.0000    0.0000 C   0  0  0  0  0  0  0  0  0  0  0  0
    0.0000    0.0000    0.0000 C   0  0  0  0  0  0  0  0  0  0  0  0
    0.0000    0.0000    0.0000 C   0  0  0  0  0  0  0  0  0  0  0  0
    0.0000    0.0000    0.0000 C   0  0  0  0  0  0  0  0  0  0  0  0
    0.0000    0.0000    0.0000 C   0  0  0  0  0  0  0  0  0  0  0  0
    0.0000    0.0000    0.0000 Cl  0  0  0  0  0  0  0  0  0  0  0  0
    0.0000    0.0000    0.0000 C   0  0  0  0  0  0  0  0  0  0  0  0
    0.0000    0.0000    0.0000 N   0  0  0  0  0  0  0  0  0  0  0  0
    0.0000    0.0000    0.0000 C   0  0  0  0  0  0  0  0  0  0  0  0
    0.0000    0.0000    0.0000 N   0  0  0  0  0  0  0  0  0  0  0  0
    0.0000    0.0000    0.0000 C   0  0  0  0  0  0  0  0  0  0  0  0
    0.0000    0.0000    0.0000 N   0  0  0  0  0  0  0  0  0  0  0  0
    0.0000    0.0000    0.0000 N   0  0  0  0  0  0  0  0  0  0  0  0
    0.0000    0.0000    0.0000 C   0  0  0  0  0  0  0  0  0  0  0  0
    0.0000    0.0000    0.0000 N   0  0  0  0  0  0  0  0  0  0  0  0
    0.0000    0.0000    0.0000 C   0  0  0  0  0  0  0  0  0  0  0  0
  1  2  1  0
  2  3  2  0
  3  4  1  0
  4  5  1  0
  5  6  1  0
  6  7  2  0
  7  8  1  0
  8  9  2  0
  9 10  1  0
 10 11  2  0
 11 12  1  0
  3 13  1  0
 13 14  2  0
 14 15  1  0
 15 16  2  0
 16 17  1  0
 17 18  1  0
 17 19  2  0
 19 20  1  0
 20 21  1  0
 20 22  2  0
 22  2  1  0
 11  6  1  0
 22 15  1  0
M  END
>  <pIC50>  (200) 
6.92

>  <ChEMBL_ID>  (200) 
CHEMBL81119

>  <document_journal>  (200) 
J. Med. Chem.

>  <bao_endpoint>  (200) 
BAO_0000190

>  <potential_duplicate>  (200) 
False

>  <uo_units>  (200) 
UO_0000065

>  <canonical_smiles>  (200) 
Cc1c(CNc2ccccc2Cl)cnc3nc(N)nc(N)c13

>  <parent_molecule_chembl_id>  (200) 
CHEMBL81119

>  <assay_type>  (200) 
B

>  <src_id>  (200) 
1

>  <ligand_efficiency>  (200) 
{u'le': u'0.43', u'bei': u'21.99', u'sei': u'6.74', u'lle': u'4.38'}

>  <standard_flag>  (200) 
True

>  <molecule_chembl_id>  (200) 
CHEMBL81119

>  <target_organism>  (200) 
Homo sapiens

>  <standard_units>  (200) 
nM

>  <record_id>  (200) 
292931

>  <document_chembl_id>  (200) 
CHEMBL1135401

>  <bao_format>  (200) 
BAO_0000357

>  <data_validity_description>  (200) 
None

>  <activity_id>  (200) 
877199

>  <standard_type>  (200) 
IC50

>  <target_chembl_id>  (200) 
CHEMBL202

>  <data_validity_comment>  (200) 
None

>  <published_value>  (200) 
120

>  <document_year>  (200) 
2002

>  <target_pref_name>  (200) 
Dihydrofolate reductase

>  <assay_chembl_id>  (200) 
CHEMBL669986

>  <standard_relation>  (200) 
=

>  <assay_description>  (200) 
Antimycobacterial activity against human dihydrofolate reductase (hDHFR)

>  <published_relation>  (200) 
=

>  <standard_value>  (200) 
120

>  <qudt_units>  (200) 
http://www.openphacts.org/units/Nanomolar

>  <target_tax_id>  (200) 
9606

>  <bao_label>  (200) 
single protein format

>  <published_units>  (200) 
nM

>  <pchembl_value>  (200) 
6.92

>  <published_type>  (200) 
IC50

>  <activity_comment>  (200) 
None

$$$$

     RDKit          

 27 29  0  0  0  0  0  0  0  0999 V2000
    0.0000    0.0000    0.0000 C   0  0  0  0  0  0  0  0  0  0  0  0
    0.0000    0.0000    0.0000 O   0  0  0  0  0  0  0  0  0  0  0  0
    0.0000    0.0000    0.0000 C   0  0  0  0  0  0  0  0  0  0  0  0
    0.0000    0.0000    0.0000 C   0  0  0  0  0  0  0  0  0  0  0  0
    0.0000    0.0000    0.0000 C   0  0  0  0  0  0  0  0  0  0  0  0
    0.0000    0.0000    0.0000 N   0  0  0  0  0  0  0  0  0  0  0  0
    0.0000    0.0000    0.0000 C   0  0  0  0  0  0  0  0  0  0  0  0
    0.0000    0.0000    0.0000 C   0  0  0  0  0  0  0  0  0  0  0  0
    0.0000    0.0000    0.0000 C   0  0  0  0  0  0  0  0  0  0  0  0
    0.0000    0.0000    0.0000 N   0  0  0  0  0  0  0  0  0  0  0  0
    0.0000    0.0000    0.0000 C   0  0  0  0  0  0  0  0  0  0  0  0
    0.0000    0.0000    0.0000 N   0  0  0  0  0  0  0  0  0  0  0  0
    0.0000    0.0000    0.0000 C   0  0  0  0  0  0  0  0  0  0  0  0
    0.0000    0.0000    0.0000 N   0  0  0  0  0  0  0  0  0  0  0  0
    0.0000    0.0000    0.0000 N   0  0  0  0  0  0  0  0  0  0  0  0
    0.0000    0.0000    0.0000 C   0  0  0  0  0  0  0  0  0  0  0  0
    0.0000    0.0000    0.0000 N   0  0  0  0  0  0  0  0  0  0  0  0
    0.0000    0.0000    0.0000 C   0  0  0  0  0  0  0  0  0  0  0  0
    0.0000    0.0000    0.0000 C   0  0  0  0  0  0  0  0  0  0  0  0
    0.0000    0.0000    0.0000 C   0  0  0  0  0  0  0  0  0  0  0  0
    0.0000    0.0000    0.0000 C   0  0  0  0  0  0  0  0  0  0  0  0
    0.0000    0.0000    0.0000 C   0  0  0  0  0  0  0  0  0  0  0  0
    0.0000    0.0000    0.0000 C   0  0  0  0  0  0  0  0  0  0  0  0
    0.0000    0.0000    0.0000 C   0  0  0  0  0  0  0  0  0  0  0  0
    0.0000    0.0000    0.0000 F   0  0  0  0  0  0  0  0  0  0  0  0
    0.0000    0.0000    0.0000 F   0  0  0  0  0  0  0  0  0  0  0  0
    0.0000    0.0000    0.0000 F   0  0  0  0  0  0  0  0  0  0  0  0
  1  2  1  0
  2  3  1  0
  3  4  2  0
  4  5  1  0
  5  6  1  0
  6  7  1  0
  7  8  1  0
  8  9  2  0
  9 10  1  0
 10 11  2  0
 11 12  1  0
 12 13  2  0
 13 14  1  0
 13 15  1  0
 15 16  2  0
 16 17  1  0
 16 18  1  0
 18 19  2  0
 19 20  1  0
  5 21  2  0
 21 22  1  0
 22 23  2  0
 22 24  1  0
 24 25  1  0
 24 26  1  0
 24 27  1  0
 23  3  1  0
 19  8  1  0
 18 11  1  0
M  END
>  <pIC50>  (201) 
8.26

>  <ChEMBL_ID>  (201) 
CHEMBL23963

>  <document_journal>  (201) 
J. Med. Chem.

>  <bao_endpoint>  (201) 
BAO_0000190

>  <potential_duplicate>  (201) 
False

>  <uo_units>  (201) 
UO_0000065

>  <canonical_smiles>  (201) 
COc1cc(NCc2cnc3nc(N)nc(N)c3c2C)cc(c1)C(F)(F)F

>  <parent_molecule_chembl_id>  (201) 
CHEMBL23963

>  <assay_type>  (201) 
B

>  <src_id>  (201) 
1

>  <ligand_efficiency>  (201) 
{u'le': u'0.42', u'bei': u'21.83', u'sei': u'7.38', u'lle': u'5.46'}

>  <standard_flag>  (201) 
True

>  <molecule_chembl_id>  (201) 
CHEMBL23963

>  <target_organism>  (201) 
Homo sapiens

>  <standard_units>  (201) 
nM

>  <record_id>  (201) 
292898

>  <document_chembl_id>  (201) 
CHEMBL1135401

>  <bao_format>  (201) 
BAO_0000357

>  <data_validity_description>  (201) 
None

>  <activity_id>  (201) 
877203

>  <standard_type>  (201) 
IC50

>  <target_chembl_id>  (201) 
CHEMBL202

>  <data_validity_comment>  (201) 
None

>  <published_value>  (201) 
5.5

>  <document_year>  (201) 
2002

>  <target_pref_name>  (201) 
Dihydrofolate reductase

>  <assay_chembl_id>  (201) 
CHEMBL669986

>  <standard_relation>  (201) 
=

>  <assay_description>  (201) 
Antimycobacterial activity against human dihydrofolate reductase (hDHFR)

>  <published_relation>  (201) 
=

>  <standard_value>  (201) 
5.5

>  <qudt_units>  (201) 
http://www.openphacts.org/units/Nanomolar

>  <target_tax_id>  (201) 
9606

>  <bao_label>  (201) 
single protein format

>  <published_units>  (201) 
nM

>  <pchembl_value>  (201) 
8.26

>  <published_type>  (201) 
IC50

>  <activity_comment>  (201) 
None

$$$$

     RDKit          

 23 25  0  0  0  0  0  0  0  0999 V2000
    0.0000    0.0000    0.0000 C   0  0  0  0  0  0  0  0  0  0  0  0
    0.0000    0.0000    0.0000 C   0  0  0  0  0  0  0  0  0  0  0  0
    0.0000    0.0000    0.0000 C   0  0  0  0  0  0  0  0  0  0  0  0
    0.0000    0.0000    0.0000 C   0  0  0  0  0  0  0  0  0  0  0  0
    0.0000    0.0000    0.0000 Br  0  0  0  0  0  0  0  0  0  0  0  0
    0.0000    0.0000    0.0000 C   0  0  0  0  0  0  0  0  0  0  0  0
    0.0000    0.0000    0.0000 C   0  0  0  0  0  0  0  0  0  0  0  0
    0.0000    0.0000    0.0000 C   0  0  0  0  0  0  0  0  0  0  0  0
    0.0000    0.0000    0.0000 N   0  0  0  0  0  0  0  0  0  0  0  0
    0.0000    0.0000    0.0000 C   0  0  0  0  0  0  0  0  0  0  0  0
    0.0000    0.0000    0.0000 C   0  0  0  0  0  0  0  0  0  0  0  0
    0.0000    0.0000    0.0000 C   0  0  0  0  0  0  0  0  0  0  0  0
    0.0000    0.0000    0.0000 N   0  0  0  0  0  0  0  0  0  0  0  0
    0.0000    0.0000    0.0000 C   0  0  0  0  0  0  0  0  0  0  0  0
    0.0000    0.0000    0.0000 N   0  0  0  0  0  0  0  0  0  0  0  0
    0.0000    0.0000    0.0000 C   0  0  0  0  0  0  0  0  0  0  0  0
    0.0000    0.0000    0.0000 N   0  0  0  0  0  0  0  0  0  0  0  0
    0.0000    0.0000    0.0000 N   0  0  0  0  0  0  0  0  0  0  0  0
    0.0000    0.0000    0.0000 C   0  0  0  0  0  0  0  0  0  0  0  0
    0.0000    0.0000    0.0000 N   0  0  0  0  0  0  0  0  0  0  0  0
    0.0000    0.0000    0.0000 C   0  0  0  0  0  0  0  0  0  0  0  0
    0.0000    0.0000    0.0000 C   0  0  0  0  0  0  0  0  0  0  0  0
    0.0000    0.0000    0.0000 C   0  0  0  0  0  0  0  0  0  0  0  0
  1  2  1  0
  2  3  2  0
  3  4  1  0
  4  5  1  0
  4  6  2  0
  6  7  1  0
  7  8  2  0
  8  9  1  0
  9 10  1  0
 10 11  1  0
 11 12  2  0
 12 13  1  0
 13 14  2  0
 14 15  1  0
 15 16  2  0
 16 17  1  0
 16 18  1  0
 18 19  2  0
 19 20  1  0
 19 21  1  0
 21 22  2  0
 22 23  1  0
  8  2  1  0
 22 11  1  0
 21 14  1  0
M  END
>  <pIC50>  (202) 
8.23

>  <ChEMBL_ID>  (202) 
CHEMBL148877

>  <document_journal>  (202) 
J. Med. Chem.

>  <bao_endpoint>  (202) 
BAO_0000190

>  <potential_duplicate>  (202) 
False

>  <uo_units>  (202) 
UO_0000065

>  <canonical_smiles>  (202) 
Cc1cc(Br)ccc1NCc2cnc3nc(N)nc(N)c3c2C

>  <parent_molecule_chembl_id>  (202) 
CHEMBL148877

>  <assay_type>  (202) 
B

>  <src_id>  (202) 
1

>  <ligand_efficiency>  (202) 
{u'le': u'0.49', u'bei': u'22.05', u'sei': u'8.01', u'lle': u'5.12'}

>  <standard_flag>  (202) 
True

>  <molecule_chembl_id>  (202) 
CHEMBL148877

>  <target_organism>  (202) 
Homo sapiens

>  <standard_units>  (202) 
nM

>  <record_id>  (202) 
292886

>  <document_chembl_id>  (202) 
CHEMBL1135401

>  <bao_format>  (202) 
BAO_0000357

>  <data_validity_description>  (202) 
None

>  <activity_id>  (202) 
878474

>  <standard_type>  (202) 
IC50

>  <target_chembl_id>  (202) 
CHEMBL202

>  <data_validity_comment>  (202) 
None

>  <published_value>  (202) 
5.9

>  <document_year>  (202) 
2002

>  <target_pref_name>  (202) 
Dihydrofolate reductase

>  <assay_chembl_id>  (202) 
CHEMBL669986

>  <standard_relation>  (202) 
=

>  <assay_description>  (202) 
Antimycobacterial activity against human dihydrofolate reductase (hDHFR)

>  <published_relation>  (202) 
=

>  <standard_value>  (202) 
5.9

>  <qudt_units>  (202) 
http://www.openphacts.org/units/Nanomolar

>  <target_tax_id>  (202) 
9606

>  <bao_label>  (202) 
single protein format

>  <published_units>  (202) 
nM

>  <pchembl_value>  (202) 
8.23

>  <published_type>  (202) 
IC50

>  <activity_comment>  (202) 
None

$$$$

     RDKit          

 26 28  0  0  0  0  0  0  0  0999 V2000
    0.0000    0.0000    0.0000 C   0  0  0  0  0  0  0  0  0  0  0  0
    0.0000    0.0000    0.0000 O   0  0  0  0  0  0  0  0  0  0  0  0
    0.0000    0.0000    0.0000 C   0  0  0  0  0  0  0  0  0  0  0  0
    0.0000    0.0000    0.0000 C   0  0  0  0  0  0  0  0  0  0  0  0
    0.0000    0.0000    0.0000 C   0  0  0  0  0  0  0  0  0  0  0  0
    0.0000    0.0000    0.0000 O   0  0  0  0  0  0  0  0  0  0  0  0
    0.0000    0.0000    0.0000 C   0  0  0  0  0  0  0  0  0  0  0  0
    0.0000    0.0000    0.0000 C   0  0  0  0  0  0  0  0  0  0  0  0
    0.0000    0.0000    0.0000 C   0  0  0  0  0  0  0  0  0  0  0  0
    0.0000    0.0000    0.0000 C   0  0  0  0  0  0  0  0  0  0  0  0
    0.0000    0.0000    0.0000 N   0  0  0  0  0  0  0  0  0  0  0  0
    0.0000    0.0000    0.0000 C   0  0  0  0  0  0  0  0  0  0  0  0
    0.0000    0.0000    0.0000 C   0  0  0  0  0  0  0  0  0  0  0  0
    0.0000    0.0000    0.0000 C   0  0  0  0  0  0  0  0  0  0  0  0
    0.0000    0.0000    0.0000 C   0  0  0  0  0  0  0  0  0  0  0  0
    0.0000    0.0000    0.0000 N   0  0  0  0  0  0  0  0  0  0  0  0
    0.0000    0.0000    0.0000 C   0  0  0  0  0  0  0  0  0  0  0  0
    0.0000    0.0000    0.0000 N   0  0  0  0  0  0  0  0  0  0  0  0
    0.0000    0.0000    0.0000 C   0  0  0  0  0  0  0  0  0  0  0  0
    0.0000    0.0000    0.0000 N   0  0  0  0  0  0  0  0  0  0  0  0
    0.0000    0.0000    0.0000 N   0  0  0  0  0  0  0  0  0  0  0  0
    0.0000    0.0000    0.0000 C   0  0  0  0  0  0  0  0  0  0  0  0
    0.0000    0.0000    0.0000 N   0  0  0  0  0  0  0  0  0  0  0  0
    0.0000    0.0000    0.0000 C   0  0  0  0  0  0  0  0  0  0  0  0
    0.0000    0.0000    0.0000 C   0  0  0  0  0  0  0  0  0  0  0  0
    0.0000    0.0000    0.0000 C   0  0  0  0  0  0  0  0  0  0  0  0
  1  2  1  0
  2  3  1  0
  3  4  2  0
  4  5  1  0
  5  6  1  0
  6  7  1  0
  5  8  2  0
  8  9  1  0
  9 10  2  0
  9 11  1  0
 11 12  1  0
 11 13  1  0
 13 14  1  0
 14 15  2  0
 15 16  1  0
 16 17  2  0
 17 18  1  0
 18 19  2  0
 19 20  1  0
 19 21  1  0
 21 22  2  0
 22 23  1  0
 22 24  1  0
 24 25  2  0
 25 26  1  0
 10  3  1  0
 25 14  1  0
 24 17  1  0
M  END
>  <pIC50>  (203) 
8.06

>  <ChEMBL_ID>  (203) 
CHEMBL22623

>  <document_journal>  (203) 
J. Med. Chem.

>  <bao_endpoint>  (203) 
BAO_0000190

>  <potential_duplicate>  (203) 
False

>  <uo_units>  (203) 
UO_0000065

>  <canonical_smiles>  (203) 
COc1cc(OC)cc(c1)N(C)Cc2cnc3nc(N)nc(N)c3c2C

>  <parent_molecule_chembl_id>  (203) 
CHEMBL22623

>  <assay_type>  (203) 
B

>  <src_id>  (203) 
1

>  <ligand_efficiency>  (203) 
{u'le': u'0.42', u'bei': u'22.74', u'sei': u'7.17', u'lle': u'5.86'}

>  <standard_flag>  (203) 
True

>  <molecule_chembl_id>  (203) 
CHEMBL22623

>  <target_organism>  (203) 
Homo sapiens

>  <standard_units>  (203) 
nM

>  <record_id>  (203) 
292922

>  <document_chembl_id>  (203) 
CHEMBL1135401

>  <bao_format>  (203) 
BAO_0000357

>  <data_validity_description>  (203) 
None

>  <activity_id>  (203) 
878478

>  <standard_type>  (203) 
IC50

>  <target_chembl_id>  (203) 
CHEMBL202

>  <data_validity_comment>  (203) 
None

>  <published_value>  (203) 
8.7

>  <document_year>  (203) 
2002

>  <target_pref_name>  (203) 
Dihydrofolate reductase

>  <assay_chembl_id>  (203) 
CHEMBL669986

>  <standard_relation>  (203) 
=

>  <assay_description>  (203) 
Antimycobacterial activity against human dihydrofolate reductase (hDHFR)

>  <published_relation>  (203) 
=

>  <standard_value>  (203) 
8.7

>  <qudt_units>  (203) 
http://www.openphacts.org/units/Nanomolar

>  <target_tax_id>  (203) 
9606

>  <bao_label>  (203) 
single protein format

>  <published_units>  (203) 
nM

>  <pchembl_value>  (203) 
8.06

>  <published_type>  (203) 
IC50

>  <activity_comment>  (203) 
None

$$$$

     RDKit          

 26 29  0  0  0  0  0  0  0  0999 V2000
    0.0000    0.0000    0.0000 C   0  0  0  0  0  0  0  0  0  0  0  0
    0.0000    0.0000    0.0000 C   0  0  0  0  0  0  0  0  0  0  0  0
    0.0000    0.0000    0.0000 C   0  0  0  0  0  0  0  0  0  0  0  0
    0.0000    0.0000    0.0000 C   0  0  0  0  0  0  0  0  0  0  0  0
    0.0000    0.0000    0.0000 N   0  0  0  0  0  0  0  0  0  0  0  0
    0.0000    0.0000    0.0000 C   0  0  0  0  0  0  0  0  0  0  0  0
    0.0000    0.0000    0.0000 C   0  0  0  0  0  0  0  0  0  0  0  0
    0.0000    0.0000    0.0000 C   0  0  0  0  0  0  0  0  0  0  0  0
    0.0000    0.0000    0.0000 C   0  0  0  0  0  0  0  0  0  0  0  0
    0.0000    0.0000    0.0000 Cl  0  0  0  0  0  0  0  0  0  0  0  0
    0.0000    0.0000    0.0000 C   0  0  0  0  0  0  0  0  0  0  0  0
    0.0000    0.0000    0.0000 C   0  0  0  0  0  0  0  0  0  0  0  0
    0.0000    0.0000    0.0000 C   0  0  0  0  0  0  0  0  0  0  0  0
    0.0000    0.0000    0.0000 C   0  0  0  0  0  0  0  0  0  0  0  0
    0.0000    0.0000    0.0000 C   0  0  0  0  0  0  0  0  0  0  0  0
    0.0000    0.0000    0.0000 C   0  0  0  0  0  0  0  0  0  0  0  0
    0.0000    0.0000    0.0000 C   0  0  0  0  0  0  0  0  0  0  0  0
    0.0000    0.0000    0.0000 N   0  0  0  0  0  0  0  0  0  0  0  0
    0.0000    0.0000    0.0000 C   0  0  0  0  0  0  0  0  0  0  0  0
    0.0000    0.0000    0.0000 N   0  0  0  0  0  0  0  0  0  0  0  0
    0.0000    0.0000    0.0000 C   0  0  0  0  0  0  0  0  0  0  0  0
    0.0000    0.0000    0.0000 N   0  0  0  0  0  0  0  0  0  0  0  0
    0.0000    0.0000    0.0000 N   0  0  0  0  0  0  0  0  0  0  0  0
    0.0000    0.0000    0.0000 C   0  0  0  0  0  0  0  0  0  0  0  0
    0.0000    0.0000    0.0000 N   0  0  0  0  0  0  0  0  0  0  0  0
    0.0000    0.0000    0.0000 C   0  0  0  0  0  0  0  0  0  0  0  0
  1  2  1  0
  2  3  2  0
  3  4  1  0
  4  5  1  0
  5  6  1  0
  6  7  2  0
  7  8  1  0
  8  9  2  0
  9 10  1  0
  9 11  1  0
 11 12  2  0
 12 13  1  0
 13 14  2  0
 14 15  1  0
 15 16  2  0
  3 17  1  0
 17 18  2  0
 18 19  1  0
 19 20  2  0
 20 21  1  0
 21 22  1  0
 21 23  2  0
 23 24  1  0
 24 25  1  0
 24 26  2  0
 26  2  1  0
 16  6  1  0
 16 11  1  0
 26 19  1  0
M  END
>  <pIC50>  (204) 
8.7

>  <ChEMBL_ID>  (204) 
CHEMBL150317

>  <document_journal>  (204) 
J. Med. Chem.

>  <bao_endpoint>  (204) 
BAO_0000190

>  <potential_duplicate>  (204) 
False

>  <uo_units>  (204) 
UO_0000065

>  <canonical_smiles>  (204) 
Cc1c(CNc2ccc(Cl)c3ccccc23)cnc4nc(N)nc(N)c14

>  <parent_molecule_chembl_id>  (204) 
CHEMBL150317

>  <assay_type>  (204) 
B

>  <src_id>  (204) 
1

>  <ligand_efficiency>  (204) 
{u'le': u'0.46', u'bei': u'23.84', u'sei': u'8.47', u'lle': u'5.25'}

>  <standard_flag>  (204) 
True

>  <molecule_chembl_id>  (204) 
CHEMBL150317

>  <target_organism>  (204) 
Homo sapiens

>  <standard_units>  (204) 
nM

>  <record_id>  (204) 
292880

>  <document_chembl_id>  (204) 
CHEMBL1135401

>  <bao_format>  (204) 
BAO_0000357

>  <data_validity_description>  (204) 
None

>  <activity_id>  (204) 
878530

>  <standard_type>  (204) 
IC50

>  <target_chembl_id>  (204) 
CHEMBL202

>  <data_validity_comment>  (204) 
None

>  <published_value>  (204) 
2

>  <document_year>  (204) 
2002

>  <target_pref_name>  (204) 
Dihydrofolate reductase

>  <assay_chembl_id>  (204) 
CHEMBL669986

>  <standard_relation>  (204) 
=

>  <assay_description>  (204) 
Antimycobacterial activity against human dihydrofolate reductase (hDHFR)

>  <published_relation>  (204) 
=

>  <standard_value>  (204) 
2

>  <qudt_units>  (204) 
http://www.openphacts.org/units/Nanomolar

>  <target_tax_id>  (204) 
9606

>  <bao_label>  (204) 
single protein format

>  <published_units>  (204) 
nM

>  <pchembl_value>  (204) 
8.7

>  <published_type>  (204) 
IC50

>  <activity_comment>  (204) 
None

$$$$

     RDKit          

 29 32  0  0  0  0  0  0  0  0999 V2000
    0.0000    0.0000    0.0000 C   0  0  0  0  0  0  0  0  0  0  0  0
    0.0000    0.0000    0.0000 O   0  0  0  0  0  0  0  0  0  0  0  0
    0.0000    0.0000    0.0000 C   0  0  0  0  0  0  0  0  0  0  0  0
    0.0000    0.0000    0.0000 C   0  0  0  0  0  0  0  0  0  0  0  0
    0.0000    0.0000    0.0000 C   0  0  0  0  0  0  0  0  0  0  0  0
    0.0000    0.0000    0.0000 C   0  0  0  0  0  0  0  0  0  0  0  0
    0.0000    0.0000    0.0000 C   0  0  0  0  0  0  0  0  0  0  0  0
    0.0000    0.0000    0.0000 C   0  0  0  0  0  0  0  0  0  0  0  0
    0.0000    0.0000    0.0000 N   0  0  0  0  0  0  0  0  0  0  0  0
    0.0000    0.0000    0.0000 C   0  0  0  0  0  0  0  0  0  0  0  0
    0.0000    0.0000    0.0000 C   0  0  0  0  0  0  0  0  0  0  0  0
    0.0000    0.0000    0.0000 C   0  0  0  0  0  0  0  0  0  0  0  0
    0.0000    0.0000    0.0000 N   0  0  0  0  0  0  0  0  0  0  0  0
    0.0000    0.0000    0.0000 C   0  0  0  0  0  0  0  0  0  0  0  0
    0.0000    0.0000    0.0000 N   0  0  0  0  0  0  0  0  0  0  0  0
    0.0000    0.0000    0.0000 C   0  0  0  0  0  0  0  0  0  0  0  0
    0.0000    0.0000    0.0000 N   0  0  0  0  0  0  0  0  0  0  0  0
    0.0000    0.0000    0.0000 N   0  0  0  0  0  0  0  0  0  0  0  0
    0.0000    0.0000    0.0000 C   0  0  0  0  0  0  0  0  0  0  0  0
    0.0000    0.0000    0.0000 N   0  0  0  0  0  0  0  0  0  0  0  0
    0.0000    0.0000    0.0000 C   0  0  0  0  0  0  0  0  0  0  0  0
    0.0000    0.0000    0.0000 C   0  0  0  0  0  0  0  0  0  0  0  0
    0.0000    0.0000    0.0000 C   0  0  0  0  0  0  0  0  0  0  0  0
    0.0000    0.0000    0.0000 C   0  0  0  0  0  0  0  0  0  0  0  0
    0.0000    0.0000    0.0000 C   0  0  0  0  0  0  0  0  0  0  0  0
    0.0000    0.0000    0.0000 C   0  0  0  0  0  0  0  0  0  0  0  0
    0.0000    0.0000    0.0000 C   0  0  0  0  0  0  0  0  0  0  0  0
    0.0000    0.0000    0.0000 C   0  0  0  0  0  0  0  0  0  0  0  0
    0.0000    0.0000    0.0000 C   0  0  0  0  0  0  0  0  0  0  0  0
  1  2  1  0
  2  3  1  0
  3  4  2  0
  4  5  1  0
  5  6  2  0
  6  7  1  0
  7  8  2  0
  8  9  1  0
  9 10  1  0
 10 11  1  0
 11 12  2  0
 12 13  1  0
 13 14  2  0
 14 15  1  0
 15 16  2  0
 16 17  1  0
 16 18  1  0
 18 19  2  0
 19 20  1  0
 19 21  1  0
 21 22  2  0
 22 23  1  0
  5 24  1  0
 24 25  2  0
 25 26  1  0
 26 27  2  0
 27 28  1  0
 28 29  2  0
  8  3  1  0
 22 11  1  0
 21 14  1  0
 29 24  1  0
M  END
>  <pIC50>  (205) 
7.17

>  <ChEMBL_ID>  (205) 
CHEMBL147504

>  <document_journal>  (205) 
J. Med. Chem.

>  <bao_endpoint>  (205) 
BAO_0000190

>  <potential_duplicate>  (205) 
False

>  <uo_units>  (205) 
UO_0000065

>  <canonical_smiles>  (205) 
COc1cc(ccc1NCc2cnc3nc(N)nc(N)c3c2C)c4ccccc4

>  <parent_molecule_chembl_id>  (205) 
CHEMBL147504

>  <assay_type>  (205) 
B

>  <src_id>  (205) 
1

>  <ligand_efficiency>  (205) 
{u'le': u'0.34', u'bei': u'18.55', u'sei': u'6.4', u'lle': u'3.79'}

>  <standard_flag>  (205) 
True

>  <molecule_chembl_id>  (205) 
CHEMBL147504

>  <target_organism>  (205) 
Homo sapiens

>  <standard_units>  (205) 
nM

>  <record_id>  (205) 
292928

>  <document_chembl_id>  (205) 
CHEMBL1135401

>  <bao_format>  (205) 
BAO_0000357

>  <data_validity_description>  (205) 
None

>  <activity_id>  (205) 
879678

>  <standard_type>  (205) 
IC50

>  <target_chembl_id>  (205) 
CHEMBL202

>  <data_validity_comment>  (205) 
None

>  <published_value>  (205) 
68

>  <document_year>  (205) 
2002

>  <target_pref_name>  (205) 
Dihydrofolate reductase

>  <assay_chembl_id>  (205) 
CHEMBL669986

>  <standard_relation>  (205) 
=

>  <assay_description>  (205) 
Antimycobacterial activity against human dihydrofolate reductase (hDHFR)

>  <published_relation>  (205) 
=

>  <standard_value>  (205) 
68

>  <qudt_units>  (205) 
http://www.openphacts.org/units/Nanomolar

>  <target_tax_id>  (205) 
9606

>  <bao_label>  (205) 
single protein format

>  <published_units>  (205) 
nM

>  <pchembl_value>  (205) 
7.17

>  <published_type>  (205) 
IC50

>  <activity_comment>  (205) 
None

$$$$

     RDKit          

 27 29  0  0  0  0  0  0  0  0999 V2000
    0.0000    0.0000    0.0000 C   0  0  0  0  0  0  0  0  0  0  0  0
    0.0000    0.0000    0.0000 C   0  0  0  0  0  0  0  0  0  0  0  0
    0.0000    0.0000    0.0000 C   0  0  0  0  0  0  0  0  0  0  0  0
    0.0000    0.0000    0.0000 O   0  0  0  0  0  0  0  0  0  0  0  0
    0.0000    0.0000    0.0000 C   0  0  0  0  0  0  0  0  0  0  0  0
    0.0000    0.0000    0.0000 C   0  0  0  0  0  0  0  0  0  0  0  0
    0.0000    0.0000    0.0000 C   0  0  0  0  0  0  0  0  0  0  0  0
    0.0000    0.0000    0.0000 C   0  0  0  0  0  0  0  0  0  0  0  0
    0.0000    0.0000    0.0000 N   0  0  0  0  0  0  0  0  0  0  0  0
    0.0000    0.0000    0.0000 C   0  0  0  0  0  0  0  0  0  0  0  0
    0.0000    0.0000    0.0000 C   0  0  0  0  0  0  0  0  0  0  0  0
    0.0000    0.0000    0.0000 C   0  0  0  0  0  0  0  0  0  0  0  0
    0.0000    0.0000    0.0000 N   0  0  0  0  0  0  0  0  0  0  0  0
    0.0000    0.0000    0.0000 C   0  0  0  0  0  0  0  0  0  0  0  0
    0.0000    0.0000    0.0000 N   0  0  0  0  0  0  0  0  0  0  0  0
    0.0000    0.0000    0.0000 C   0  0  0  0  0  0  0  0  0  0  0  0
    0.0000    0.0000    0.0000 N   0  0  0  0  0  0  0  0  0  0  0  0
    0.0000    0.0000    0.0000 N   0  0  0  0  0  0  0  0  0  0  0  0
    0.0000    0.0000    0.0000 C   0  0  0  0  0  0  0  0  0  0  0  0
    0.0000    0.0000    0.0000 N   0  0  0  0  0  0  0  0  0  0  0  0
    0.0000    0.0000    0.0000 C   0  0  0  0  0  0  0  0  0  0  0  0
    0.0000    0.0000    0.0000 C   0  0  0  0  0  0  0  0  0  0  0  0
    0.0000    0.0000    0.0000 C   0  0  0  0  0  0  0  0  0  0  0  0
    0.0000    0.0000    0.0000 C   0  0  0  0  0  0  0  0  0  0  0  0
    0.0000    0.0000    0.0000 C   0  0  0  0  0  0  0  0  0  0  0  0
    0.0000    0.0000    0.0000 O   0  0  0  0  0  0  0  0  0  0  0  0
    0.0000    0.0000    0.0000 C   0  0  0  0  0  0  0  0  0  0  0  0
  1  2  1  0
  2  3  1  0
  3  4  1  0
  4  5  1  0
  5  6  2  0
  6  7  1  0
  7  8  2  0
  8  9  1  0
  9 10  1  0
 10 11  1  0
 11 12  2  0
 12 13  1  0
 13 14  2  0
 14 15  1  0
 15 16  2  0
 16 17  1  0
 16 18  1  0
 18 19  2  0
 19 20  1  0
 19 21  1  0
 21 22  2  0
 22 23  1  0
  8 24  1  0
 24 25  2  0
 25 26  1  0
 26 27  1  0
 25  5  1  0
 22 11  1  0
 21 14  1  0
M  END
>  <pIC50>  (206) 
7.82

>  <ChEMBL_ID>  (206) 
CHEMBL151947

>  <document_journal>  (206) 
J. Med. Chem.

>  <bao_endpoint>  (206) 
BAO_0000190

>  <potential_duplicate>  (206) 
False

>  <uo_units>  (206) 
UO_0000065

>  <canonical_smiles>  (206) 
CCCOc1ccc(NCc2cnc3nc(N)nc(N)c3c2C)cc1OC

>  <parent_molecule_chembl_id>  (206) 
CHEMBL151947

>  <assay_type>  (206) 
B

>  <src_id>  (206) 
1

>  <ligand_efficiency>  (206) 
{u'le': u'0.4', u'bei': u'21.24', u'sei': u'6.46', u'lle': u'5.1'}

>  <standard_flag>  (206) 
True

>  <molecule_chembl_id>  (206) 
CHEMBL151947

>  <target_organism>  (206) 
Homo sapiens

>  <standard_units>  (206) 
nM

>  <record_id>  (206) 
292935

>  <document_chembl_id>  (206) 
CHEMBL1135401

>  <bao_format>  (206) 
BAO_0000357

>  <data_validity_description>  (206) 
None

>  <activity_id>  (206) 
879682

>  <standard_type>  (206) 
IC50

>  <target_chembl_id>  (206) 
CHEMBL202

>  <data_validity_comment>  (206) 
None

>  <published_value>  (206) 
15

>  <document_year>  (206) 
2002

>  <target_pref_name>  (206) 
Dihydrofolate reductase

>  <assay_chembl_id>  (206) 
CHEMBL669986

>  <standard_relation>  (206) 
=

>  <assay_description>  (206) 
Antimycobacterial activity against human dihydrofolate reductase (hDHFR)

>  <published_relation>  (206) 
=

>  <standard_value>  (206) 
15

>  <qudt_units>  (206) 
http://www.openphacts.org/units/Nanomolar

>  <target_tax_id>  (206) 
9606

>  <bao_label>  (206) 
single protein format

>  <published_units>  (206) 
nM

>  <pchembl_value>  (206) 
7.82

>  <published_type>  (206) 
IC50

>  <activity_comment>  (206) 
None

$$$$

     RDKit          

 27 29  0  0  0  0  0  0  0  0999 V2000
    0.0000    0.0000    0.0000 C   0  0  0  0  0  0  0  0  0  0  0  0
    0.0000    0.0000    0.0000 O   0  0  0  0  0  0  0  0  0  0  0  0
    0.0000    0.0000    0.0000 C   0  0  0  0  0  0  0  0  0  0  0  0
    0.0000    0.0000    0.0000 C   0  0  0  0  0  0  0  0  0  0  0  0
    0.0000    0.0000    0.0000 C   0  0  0  0  0  0  0  0  0  0  0  0
    0.0000    0.0000    0.0000 N   0  0  0  0  0  0  0  0  0  0  0  0
    0.0000    0.0000    0.0000 C   0  0  0  0  0  0  0  0  0  0  0  0
    0.0000    0.0000    0.0000 C   0  0  0  0  0  0  0  0  0  0  0  0
    0.0000    0.0000    0.0000 C   0  0  0  0  0  0  0  0  0  0  0  0
    0.0000    0.0000    0.0000 N   0  0  0  0  0  0  0  0  0  0  0  0
    0.0000    0.0000    0.0000 C   0  0  0  0  0  0  0  0  0  0  0  0
    0.0000    0.0000    0.0000 N   0  0  0  0  0  0  0  0  0  0  0  0
    0.0000    0.0000    0.0000 C   0  0  0  0  0  0  0  0  0  0  0  0
    0.0000    0.0000    0.0000 N   0  0  0  0  0  0  0  0  0  0  0  0
    0.0000    0.0000    0.0000 N   0  0  0  0  0  0  0  0  0  0  0  0
    0.0000    0.0000    0.0000 C   0  0  0  0  0  0  0  0  0  0  0  0
    0.0000    0.0000    0.0000 N   0  0  0  0  0  0  0  0  0  0  0  0
    0.0000    0.0000    0.0000 C   0  0  0  0  0  0  0  0  0  0  0  0
    0.0000    0.0000    0.0000 C   0  0  0  0  0  0  0  0  0  0  0  0
    0.0000    0.0000    0.0000 C   0  0  0  0  0  0  0  0  0  0  0  0
    0.0000    0.0000    0.0000 C   0  0  0  0  0  0  0  0  0  0  0  0
    0.0000    0.0000    0.0000 C   0  0  0  0  0  0  0  0  0  0  0  0
    0.0000    0.0000    0.0000 O   0  0  0  0  0  0  0  0  0  0  0  0
    0.0000    0.0000    0.0000 C   0  0  0  0  0  0  0  0  0  0  0  0
    0.0000    0.0000    0.0000 C   0  0  0  0  0  0  0  0  0  0  0  0
    0.0000    0.0000    0.0000 O   0  0  0  0  0  0  0  0  0  0  0  0
    0.0000    0.0000    0.0000 C   0  0  0  0  0  0  0  0  0  0  0  0
  1  2  1  0
  2  3  1  0
  3  4  2  0
  4  5  1  0
  5  6  1  0
  6  7  1  0
  7  8  1  0
  8  9  2  0
  9 10  1  0
 10 11  2  0
 11 12  1  0
 12 13  2  0
 13 14  1  0
 13 15  1  0
 15 16  2  0
 16 17  1  0
 16 18  1  0
 18 19  2  0
 19 20  1  0
  5 21  2  0
 21 22  1  0
 22 23  1  0
 23 24  1  0
 22 25  2  0
 25 26  1  0
 26 27  1  0
 25  3  1  0
 19  8  1  0
 18 11  1  0
M  END
>  <pIC50>  (207) 
8.33

>  <ChEMBL_ID>  (207) 
CHEMBL23532

>  <document_journal>  (207) 
J. Med. Chem.

>  <bao_endpoint>  (207) 
BAO_0000190

>  <potential_duplicate>  (207) 
False

>  <uo_units>  (207) 
UO_0000065

>  <canonical_smiles>  (207) 
COc1cc(NCc2cnc3nc(N)nc(N)c3c2C)cc(OC)c1OC

>  <parent_molecule_chembl_id>  (207) 
CHEMBL23532

>  <assay_type>  (207) 
B

>  <src_id>  (207) 
1

>  <ligand_efficiency>  (207) 
{u'le': u'0.42', u'bei': u'22.48', u'sei': u'6.38', u'lle': u'6.5'}

>  <standard_flag>  (207) 
True

>  <molecule_chembl_id>  (207) 
CHEMBL23532

>  <target_organism>  (207) 
Homo sapiens

>  <standard_units>  (207) 
nM

>  <record_id>  (207) 
292897

>  <document_chembl_id>  (207) 
CHEMBL1135401

>  <bao_format>  (207) 
BAO_0000357

>  <data_validity_description>  (207) 
None

>  <activity_id>  (207) 
879686

>  <standard_type>  (207) 
IC50

>  <target_chembl_id>  (207) 
CHEMBL202

>  <data_validity_comment>  (207) 
None

>  <published_value>  (207) 
4.7

>  <document_year>  (207) 
2002

>  <target_pref_name>  (207) 
Dihydrofolate reductase

>  <assay_chembl_id>  (207) 
CHEMBL669986

>  <standard_relation>  (207) 
=

>  <assay_description>  (207) 
Antimycobacterial activity against human dihydrofolate reductase (hDHFR)

>  <published_relation>  (207) 
=

>  <standard_value>  (207) 
4.7

>  <qudt_units>  (207) 
http://www.openphacts.org/units/Nanomolar

>  <target_tax_id>  (207) 
9606

>  <bao_label>  (207) 
single protein format

>  <published_units>  (207) 
nM

>  <pchembl_value>  (207) 
8.33

>  <published_type>  (207) 
IC50

>  <activity_comment>  (207) 
None

$$$$

     RDKit          

 25 28  0  0  0  0  0  0  0  0999 V2000
    0.0000    0.0000    0.0000 C   0  0  0  0  0  0  0  0  0  0  0  0
    0.0000    0.0000    0.0000 C   0  0  0  0  0  0  0  0  0  0  0  0
    0.0000    0.0000    0.0000 C   0  0  0  0  0  0  0  0  0  0  0  0
    0.0000    0.0000    0.0000 C   0  0  0  0  0  0  0  0  0  0  0  0
    0.0000    0.0000    0.0000 N   0  0  0  0  0  0  0  0  0  0  0  0
    0.0000    0.0000    0.0000 C   0  0  0  0  0  0  0  0  0  0  0  0
    0.0000    0.0000    0.0000 C   0  0  0  0  0  0  0  0  0  0  0  0
    0.0000    0.0000    0.0000 C   0  0  0  0  0  0  0  0  0  0  0  0
    0.0000    0.0000    0.0000 C   0  0  0  0  0  0  0  0  0  0  0  0
    0.0000    0.0000    0.0000 C   0  0  0  0  0  0  0  0  0  0  0  0
    0.0000    0.0000    0.0000 C   0  0  0  0  0  0  0  0  0  0  0  0
    0.0000    0.0000    0.0000 C   0  0  0  0  0  0  0  0  0  0  0  0
    0.0000    0.0000    0.0000 C   0  0  0  0  0  0  0  0  0  0  0  0
    0.0000    0.0000    0.0000 C   0  0  0  0  0  0  0  0  0  0  0  0
    0.0000    0.0000    0.0000 C   0  0  0  0  0  0  0  0  0  0  0  0
    0.0000    0.0000    0.0000 C   0  0  0  0  0  0  0  0  0  0  0  0
    0.0000    0.0000    0.0000 N   0  0  0  0  0  0  0  0  0  0  0  0
    0.0000    0.0000    0.0000 C   0  0  0  0  0  0  0  0  0  0  0  0
    0.0000    0.0000    0.0000 N   0  0  0  0  0  0  0  0  0  0  0  0
    0.0000    0.0000    0.0000 C   0  0  0  0  0  0  0  0  0  0  0  0
    0.0000    0.0000    0.0000 N   0  0  0  0  0  0  0  0  0  0  0  0
    0.0000    0.0000    0.0000 N   0  0  0  0  0  0  0  0  0  0  0  0
    0.0000    0.0000    0.0000 C   0  0  0  0  0  0  0  0  0  0  0  0
    0.0000    0.0000    0.0000 N   0  0  0  0  0  0  0  0  0  0  0  0
    0.0000    0.0000    0.0000 C   0  0  0  0  0  0  0  0  0  0  0  0
  1  2  1  0
  2  3  2  0
  3  4  1  0
  4  5  1  0
  5  6  1  0
  6  7  2  0
  7  8  1  0
  8  9  2  0
  9 10  1  0
 10 11  2  0
 11 12  1  0
 12 13  2  0
 13 14  1  0
 14 15  2  0
  3 16  1  0
 16 17  2  0
 17 18  1  0
 18 19  2  0
 19 20  1  0
 20 21  1  0
 20 22  2  0
 22 23  1  0
 23 24  1  0
 23 25  2  0
 25  2  1  0
 15  6  1  0
 14  9  1  0
 25 18  1  0
M  END
>  <pIC50>  (208) 
8.0

>  <ChEMBL_ID>  (208) 
CHEMBL151367

>  <document_journal>  (208) 
J. Med. Chem.

>  <bao_endpoint>  (208) 
BAO_0000190

>  <potential_duplicate>  (208) 
False

>  <uo_units>  (208) 
UO_0000065

>  <canonical_smiles>  (208) 
Cc1c(CNc2ccc3ccccc3c2)cnc4nc(N)nc(N)c14

>  <parent_molecule_chembl_id>  (208) 
CHEMBL151367

>  <assay_type>  (208) 
B

>  <src_id>  (208) 
1

>  <ligand_efficiency>  (208) 
{u'le': u'0.44', u'bei': u'24.21', u'sei': u'7.79', u'lle': u'5.21'}

>  <standard_flag>  (208) 
True

>  <molecule_chembl_id>  (208) 
CHEMBL151367

>  <target_organism>  (208) 
Homo sapiens

>  <standard_units>  (208) 
nM

>  <record_id>  (208) 
292884

>  <document_chembl_id>  (208) 
CHEMBL1135401

>  <bao_format>  (208) 
BAO_0000357

>  <data_validity_description>  (208) 
None

>  <activity_id>  (208) 
879746

>  <standard_type>  (208) 
IC50

>  <target_chembl_id>  (208) 
CHEMBL202

>  <data_validity_comment>  (208) 
None

>  <published_value>  (208) 
10

>  <document_year>  (208) 
2002

>  <target_pref_name>  (208) 
Dihydrofolate reductase

>  <assay_chembl_id>  (208) 
CHEMBL669986

>  <standard_relation>  (208) 
=

>  <assay_description>  (208) 
Antimycobacterial activity against human dihydrofolate reductase (hDHFR)

>  <published_relation>  (208) 
=

>  <standard_value>  (208) 
10

>  <qudt_units>  (208) 
http://www.openphacts.org/units/Nanomolar

>  <target_tax_id>  (208) 
9606

>  <bao_label>  (208) 
single protein format

>  <published_units>  (208) 
nM

>  <pchembl_value>  (208) 
8

>  <published_type>  (208) 
IC50

>  <activity_comment>  (208) 
None

$$$$

     RDKit          

 26 28  0  0  0  0  0  0  0  0999 V2000
    0.0000    0.0000    0.0000 C   0  0  0  0  0  0  0  0  0  0  0  0
    0.0000    0.0000    0.0000 C   0  0  0  0  0  0  0  0  0  0  0  0
    0.0000    0.0000    0.0000 C   0  0  0  0  0  0  0  0  0  0  0  0
    0.0000    0.0000    0.0000 C   0  0  0  0  0  0  0  0  0  0  0  0
    0.0000    0.0000    0.0000 C   0  0  0  0  0  0  0  0  0  0  0  0
    0.0000    0.0000    0.0000 N   0  0  0  0  0  0  0  0  0  0  0  0
    0.0000    0.0000    0.0000 C   0  0  0  0  0  0  0  0  0  0  0  0
    0.0000    0.0000    0.0000 C   0  0  0  0  0  0  0  0  0  0  0  0
    0.0000    0.0000    0.0000 C   0  0  0  0  0  0  0  0  0  0  0  0
    0.0000    0.0000    0.0000 O   0  0  0  0  0  0  0  0  0  0  0  0
    0.0000    0.0000    0.0000 C   0  0  0  0  0  0  0  0  0  0  0  0
    0.0000    0.0000    0.0000 C   0  0  0  0  0  0  0  0  0  0  0  0
    0.0000    0.0000    0.0000 C   0  0  0  0  0  0  0  0  0  0  0  0
    0.0000    0.0000    0.0000 C   0  0  0  0  0  0  0  0  0  0  0  0
    0.0000    0.0000    0.0000 O   0  0  0  0  0  0  0  0  0  0  0  0
    0.0000    0.0000    0.0000 C   0  0  0  0  0  0  0  0  0  0  0  0
    0.0000    0.0000    0.0000 C   0  0  0  0  0  0  0  0  0  0  0  0
    0.0000    0.0000    0.0000 N   0  0  0  0  0  0  0  0  0  0  0  0
    0.0000    0.0000    0.0000 C   0  0  0  0  0  0  0  0  0  0  0  0
    0.0000    0.0000    0.0000 N   0  0  0  0  0  0  0  0  0  0  0  0
    0.0000    0.0000    0.0000 C   0  0  0  0  0  0  0  0  0  0  0  0
    0.0000    0.0000    0.0000 N   0  0  0  0  0  0  0  0  0  0  0  0
    0.0000    0.0000    0.0000 N   0  0  0  0  0  0  0  0  0  0  0  0
    0.0000    0.0000    0.0000 C   0  0  0  0  0  0  0  0  0  0  0  0
    0.0000    0.0000    0.0000 N   0  0  0  0  0  0  0  0  0  0  0  0
    0.0000    0.0000    0.0000 C   0  0  0  0  0  0  0  0  0  0  0  0
  1  2  1  0
  2  3  1  0
  3  4  2  0
  4  5  1  0
  5  6  1  0
  6  7  1  0
  7  8  2  0
  8  9  1  0
  9 10  1  0
 10 11  1  0
  9 12  2  0
 12 13  1  0
 13 14  2  0
 14 15  1  0
 15 16  1  0
  4 17  1  0
 17 18  2  0
 18 19  1  0
 19 20  2  0
 20 21  1  0
 21 22  1  0
 21 23  2  0
 23 24  1  0
 24 25  1  0
 24 26  2  0
 26  3  1  0
 14  7  1  0
 26 19  1  0
M  END
>  <pIC50>  (209) 
6.0

>  <ChEMBL_ID>  (209) 
CHEMBL149351

>  <document_journal>  (209) 
J. Med. Chem.

>  <bao_endpoint>  (209) 
BAO_0000190

>  <potential_duplicate>  (209) 
False

>  <uo_units>  (209) 
UO_0000065

>  <canonical_smiles>  (209) 
CCc1c(CNc2cc(OC)ccc2OC)cnc3nc(N)nc(N)c13

>  <parent_molecule_chembl_id>  (209) 
CHEMBL149351

>  <assay_type>  (209) 
B

>  <src_id>  (209) 
1

>  <ligand_efficiency>  (209) 
{u'le': u'0.32', u'bei': u'16.93', u'sei': u'4.95', u'lle': u'3.7'}

>  <standard_flag>  (209) 
True

>  <molecule_chembl_id>  (209) 
CHEMBL149351

>  <target_organism>  (209) 
Homo sapiens

>  <standard_units>  (209) 
nM

>  <record_id>  (209) 
292943

>  <document_chembl_id>  (209) 
CHEMBL1135401

>  <bao_format>  (209) 
BAO_0000357

>  <data_validity_description>  (209) 
None

>  <activity_id>  (209) 
881041

>  <standard_type>  (209) 
IC50

>  <target_chembl_id>  (209) 
CHEMBL202

>  <data_validity_comment>  (209) 
None

>  <published_value>  (209) 
1000

>  <document_year>  (209) 
2002

>  <target_pref_name>  (209) 
Dihydrofolate reductase

>  <assay_chembl_id>  (209) 
CHEMBL669986

>  <standard_relation>  (209) 
=

>  <assay_description>  (209) 
Antimycobacterial activity against human dihydrofolate reductase (hDHFR)

>  <published_relation>  (209) 
=

>  <standard_value>  (209) 
1000

>  <qudt_units>  (209) 
http://www.openphacts.org/units/Nanomolar

>  <target_tax_id>  (209) 
9606

>  <bao_label>  (209) 
single protein format

>  <published_units>  (209) 
nM

>  <pchembl_value>  (209) 
6

>  <published_type>  (209) 
IC50

>  <activity_comment>  (209) 
None

$$$$

     RDKit          

 24 26  0  0  0  0  0  0  0  0999 V2000
    0.0000    0.0000    0.0000 C   0  0  0  0  0  0  0  0  0  0  0  0
    0.0000    0.0000    0.0000 O   0  0  0  0  0  0  0  0  0  0  0  0
    0.0000    0.0000    0.0000 C   0  0  0  0  0  0  0  0  0  0  0  0
    0.0000    0.0000    0.0000 C   0  0  0  0  0  0  0  0  0  0  0  0
    0.0000    0.0000    0.0000 C   0  0  0  0  0  0  0  0  0  0  0  0
    0.0000    0.0000    0.0000 C   0  0  0  0  0  0  0  0  0  0  0  0
    0.0000    0.0000    0.0000 C   0  0  0  0  0  0  0  0  0  0  0  0
    0.0000    0.0000    0.0000 C   0  0  0  0  0  0  0  0  0  0  0  0
    0.0000    0.0000    0.0000 C   0  0  0  0  0  0  0  0  0  0  0  0
    0.0000    0.0000    0.0000 N   0  0  0  0  0  0  0  0  0  0  0  0
    0.0000    0.0000    0.0000 C   0  0  0  0  0  0  0  0  0  0  0  0
    0.0000    0.0000    0.0000 C   0  0  0  0  0  0  0  0  0  0  0  0
    0.0000    0.0000    0.0000 C   0  0  0  0  0  0  0  0  0  0  0  0
    0.0000    0.0000    0.0000 N   0  0  0  0  0  0  0  0  0  0  0  0
    0.0000    0.0000    0.0000 C   0  0  0  0  0  0  0  0  0  0  0  0
    0.0000    0.0000    0.0000 N   0  0  0  0  0  0  0  0  0  0  0  0
    0.0000    0.0000    0.0000 C   0  0  0  0  0  0  0  0  0  0  0  0
    0.0000    0.0000    0.0000 N   0  0  0  0  0  0  0  0  0  0  0  0
    0.0000    0.0000    0.0000 N   0  0  0  0  0  0  0  0  0  0  0  0
    0.0000    0.0000    0.0000 C   0  0  0  0  0  0  0  0  0  0  0  0
    0.0000    0.0000    0.0000 N   0  0  0  0  0  0  0  0  0  0  0  0
    0.0000    0.0000    0.0000 C   0  0  0  0  0  0  0  0  0  0  0  0
    0.0000    0.0000    0.0000 C   0  0  0  0  0  0  0  0  0  0  0  0
    0.0000    0.0000    0.0000 C   0  0  0  0  0  0  0  0  0  0  0  0
  1  2  1  0
  2  3  1  0
  3  4  2  0
  4  5  1  0
  5  6  2  0
  6  7  1  0
  6  8  1  0
  8  9  2  0
  9 10  1  0
 10 11  1  0
 11 12  1  0
 12 13  2  0
 13 14  1  0
 14 15  2  0
 15 16  1  0
 16 17  2  0
 17 18  1  0
 17 19  1  0
 19 20  2  0
 20 21  1  0
 20 22  1  0
 22 23  2  0
 23 24  1  0
  9  3  1  0
 23 12  1  0
 22 15  1  0
M  END
>  <pIC50>  (210) 
6.52

>  <ChEMBL_ID>  (210) 
CHEMBL279705

>  <document_journal>  (210) 
J. Med. Chem.

>  <bao_endpoint>  (210) 
BAO_0000190

>  <potential_duplicate>  (210) 
False

>  <uo_units>  (210) 
UO_0000065

>  <canonical_smiles>  (210) 
COc1ccc(C)cc1NCc2cnc3nc(N)nc(N)c3c2C

>  <parent_molecule_chembl_id>  (210) 
CHEMBL279705

>  <assay_type>  (210) 
B

>  <src_id>  (210) 
1

>  <ligand_efficiency>  (210) 
{u'le': u'0.37', u'bei': u'20.11', u'sei': u'5.83', u'lle': u'4.17'}

>  <standard_flag>  (210) 
True

>  <molecule_chembl_id>  (210) 
CHEMBL279705

>  <target_organism>  (210) 
Homo sapiens

>  <standard_units>  (210) 
nM

>  <record_id>  (210) 
292871

>  <document_chembl_id>  (210) 
CHEMBL1135401

>  <bao_format>  (210) 
BAO_0000357

>  <data_validity_description>  (210) 
None

>  <activity_id>  (210) 
881045

>  <standard_type>  (210) 
IC50

>  <target_chembl_id>  (210) 
CHEMBL202

>  <data_validity_comment>  (210) 
None

>  <published_value>  (210) 
300

>  <document_year>  (210) 
2002

>  <target_pref_name>  (210) 
Dihydrofolate reductase

>  <assay_chembl_id>  (210) 
CHEMBL669986

>  <standard_relation>  (210) 
=

>  <assay_description>  (210) 
Antimycobacterial activity against human dihydrofolate reductase (hDHFR)

>  <published_relation>  (210) 
=

>  <standard_value>  (210) 
300

>  <qudt_units>  (210) 
http://www.openphacts.org/units/Nanomolar

>  <target_tax_id>  (210) 
9606

>  <bao_label>  (210) 
single protein format

>  <published_units>  (210) 
nM

>  <pchembl_value>  (210) 
6.52

>  <published_type>  (210) 
IC50

>  <activity_comment>  (210) 
None

$$$$

     RDKit          

 25 27  0  0  0  0  0  0  0  0999 V2000
    0.0000    0.0000    0.0000 C   0  0  0  0  0  0  0  0  0  0  0  0
    0.0000    0.0000    0.0000 O   0  0  0  0  0  0  0  0  0  0  0  0
    0.0000    0.0000    0.0000 C   0  0  0  0  0  0  0  0  0  0  0  0
    0.0000    0.0000    0.0000 C   0  0  0  0  0  0  0  0  0  0  0  0
    0.0000    0.0000    0.0000 C   0  0  0  0  0  0  0  0  0  0  0  0
    0.0000    0.0000    0.0000 C   0  0  0  0  0  0  0  0  0  0  0  0
    0.0000    0.0000    0.0000 O   0  0  0  0  0  0  0  0  0  0  0  0
    0.0000    0.0000    0.0000 C   0  0  0  0  0  0  0  0  0  0  0  0
    0.0000    0.0000    0.0000 C   0  0  0  0  0  0  0  0  0  0  0  0
    0.0000    0.0000    0.0000 C   0  0  0  0  0  0  0  0  0  0  0  0
    0.0000    0.0000    0.0000 C   0  0  0  0  0  0  0  0  0  0  0  0
    0.0000    0.0000    0.0000 C   0  0  0  0  0  0  0  0  0  0  0  0
    0.0000    0.0000    0.0000 C   0  0  0  0  0  0  0  0  0  0  0  0
    0.0000    0.0000    0.0000 N   0  0  0  0  0  0  0  0  0  0  0  0
    0.0000    0.0000    0.0000 C   0  0  0  0  0  0  0  0  0  0  0  0
    0.0000    0.0000    0.0000 N   0  0  0  0  0  0  0  0  0  0  0  0
    0.0000    0.0000    0.0000 C   0  0  0  0  0  0  0  0  0  0  0  0
    0.0000    0.0000    0.0000 N   0  0  0  0  0  0  0  0  0  0  0  0
    0.0000    0.0000    0.0000 N   0  0  0  0  0  0  0  0  0  0  0  0
    0.0000    0.0000    0.0000 C   0  0  0  0  0  0  0  0  0  0  0  0
    0.0000    0.0000    0.0000 N   0  0  0  0  0  0  0  0  0  0  0  0
    0.0000    0.0000    0.0000 C   0  0  0  0  0  0  0  0  0  0  0  0
    0.0000    0.0000    0.0000 C   0  0  0  0  0  0  0  0  0  0  0  0
    0.0000    0.0000    0.0000 C   0  0  0  0  0  0  0  0  0  0  0  0
    0.0000    0.0000    0.0000 C   0  0  0  0  0  0  0  0  0  0  0  0
  1  2  1  0
  2  3  1  0
  3  4  2  0
  4  5  1  0
  5  6  2  0
  6  7  1  0
  7  8  1  0
  6  9  1  0
  9 10  1  0
 10 11  1  0
 11 12  1  0
 12 13  2  0
 13 14  1  0
 14 15  2  0
 15 16  1  0
 16 17  2  0
 17 18  1  0
 17 19  1  0
 19 20  2  0
 20 21  1  0
 20 22  1  0
 22 23  2  0
 23 24  1  0
  9 25  2  0
 25  3  1  0
 23 12  1  0
 22 15  1  0
M  END
>  <pIC50>  (211) 
5.57

>  <ChEMBL_ID>  (211) 
CHEMBL284544

>  <document_journal>  (211) 
J. Med. Chem.

>  <bao_endpoint>  (211) 
BAO_0000190

>  <potential_duplicate>  (211) 
False

>  <uo_units>  (211) 
UO_0000065

>  <canonical_smiles>  (211) 
COc1ccc(OC)c(CCc2cnc3nc(N)nc(N)c3c2C)c1

>  <parent_molecule_chembl_id>  (211) 
CHEMBL284544

>  <assay_type>  (211) 
B

>  <src_id>  (211) 
1

>  <ligand_efficiency>  (211) 
{u'le': u'0.3', u'bei': u'16.41', u'sei': u'5.1', u'lle': u'2.69'}

>  <standard_flag>  (211) 
True

>  <molecule_chembl_id>  (211) 
CHEMBL284544

>  <target_organism>  (211) 
Homo sapiens

>  <standard_units>  (211) 
nM

>  <record_id>  (211) 
292905

>  <document_chembl_id>  (211) 
CHEMBL1135401

>  <bao_format>  (211) 
BAO_0000357

>  <data_validity_description>  (211) 
None

>  <activity_id>  (211) 
881049

>  <standard_type>  (211) 
IC50

>  <target_chembl_id>  (211) 
CHEMBL202

>  <data_validity_comment>  (211) 
None

>  <published_value>  (211) 
2700

>  <document_year>  (211) 
2002

>  <target_pref_name>  (211) 
Dihydrofolate reductase

>  <assay_chembl_id>  (211) 
CHEMBL669986

>  <standard_relation>  (211) 
=

>  <assay_description>  (211) 
Antimycobacterial activity against human dihydrofolate reductase (hDHFR)

>  <published_relation>  (211) 
=

>  <standard_value>  (211) 
2700

>  <qudt_units>  (211) 
http://www.openphacts.org/units/Nanomolar

>  <target_tax_id>  (211) 
9606

>  <bao_label>  (211) 
single protein format

>  <published_units>  (211) 
nM

>  <pchembl_value>  (211) 
5.57

>  <published_type>  (211) 
IC50

>  <activity_comment>  (211) 
None

$$$$

     RDKit          

 29 31  0  0  0  0  0  0  0  0999 V2000
    0.0000    0.0000    0.0000 C   0  0  0  0  0  0  0  0  0  0  0  0
    0.0000    0.0000    0.0000 C   0  0  0  0  0  0  0  0  0  0  0  0
    0.0000    0.0000    0.0000 C   0  0  0  0  0  0  0  0  0  0  0  0
    0.0000    0.0000    0.0000 O   0  0  0  0  0  0  0  0  0  0  0  0
    0.0000    0.0000    0.0000 C   0  0  0  0  0  0  0  0  0  0  0  0
    0.0000    0.0000    0.0000 C   0  0  0  0  0  0  0  0  0  0  0  0
    0.0000    0.0000    0.0000 C   0  0  0  0  0  0  0  0  0  0  0  0
    0.0000    0.0000    0.0000 C   0  0  0  0  0  0  0  0  0  0  0  0
    0.0000    0.0000    0.0000 O   0  0  0  0  0  0  0  0  0  0  0  0
    0.0000    0.0000    0.0000 C   0  0  0  0  0  0  0  0  0  0  0  0
    0.0000    0.0000    0.0000 C   0  0  0  0  0  0  0  0  0  0  0  0
    0.0000    0.0000    0.0000 C   0  0  0  0  0  0  0  0  0  0  0  0
    0.0000    0.0000    0.0000 C   0  0  0  0  0  0  0  0  0  0  0  0
    0.0000    0.0000    0.0000 N   0  0  0  0  0  0  0  0  0  0  0  0
    0.0000    0.0000    0.0000 C   0  0  0  0  0  0  0  0  0  0  0  0
    0.0000    0.0000    0.0000 C   0  0  0  0  0  0  0  0  0  0  0  0
    0.0000    0.0000    0.0000 C   0  0  0  0  0  0  0  0  0  0  0  0
    0.0000    0.0000    0.0000 N   0  0  0  0  0  0  0  0  0  0  0  0
    0.0000    0.0000    0.0000 C   0  0  0  0  0  0  0  0  0  0  0  0
    0.0000    0.0000    0.0000 N   0  0  0  0  0  0  0  0  0  0  0  0
    0.0000    0.0000    0.0000 C   0  0  0  0  0  0  0  0  0  0  0  0
    0.0000    0.0000    0.0000 N   0  0  0  0  0  0  0  0  0  0  0  0
    0.0000    0.0000    0.0000 N   0  0  0  0  0  0  0  0  0  0  0  0
    0.0000    0.0000    0.0000 C   0  0  0  0  0  0  0  0  0  0  0  0
    0.0000    0.0000    0.0000 N   0  0  0  0  0  0  0  0  0  0  0  0
    0.0000    0.0000    0.0000 C   0  0  0  0  0  0  0  0  0  0  0  0
    0.0000    0.0000    0.0000 C   0  0  0  0  0  0  0  0  0  0  0  0
    0.0000    0.0000    0.0000 C   0  0  0  0  0  0  0  0  0  0  0  0
    0.0000    0.0000    0.0000 C   0  0  0  0  0  0  0  0  0  0  0  0
  1  2  1  0
  2  3  1  0
  3  4  1  0
  4  5  1  0
  5  6  2  0
  6  7  1  0
  7  8  2  0
  8  9  1  0
  9 10  1  0
 10 11  1  0
 11 12  1  0
  8 13  1  0
 13 14  1  0
 14 15  1  0
 15 16  1  0
 16 17  2  0
 17 18  1  0
 18 19  2  0
 19 20  1  0
 20 21  2  0
 21 22  1  0
 21 23  1  0
 23 24  2  0
 24 25  1  0
 24 26  1  0
 26 27  2  0
 27 28  1  0
 13 29  2  0
 29  5  1  0
 27 16  1  0
 26 19  1  0
M  END
>  <pIC50>  (212) 
5.14

>  <ChEMBL_ID>  (212) 
CHEMBL151312

>  <document_journal>  (212) 
J. Med. Chem.

>  <bao_endpoint>  (212) 
BAO_0000190

>  <potential_duplicate>  (212) 
False

>  <uo_units>  (212) 
UO_0000065

>  <canonical_smiles>  (212) 
CCCOc1ccc(OCCC)c(NCc2cnc3nc(N)nc(N)c3c2C)c1

>  <parent_molecule_chembl_id>  (212) 
CHEMBL151312

>  <assay_type>  (212) 
B

>  <src_id>  (212) 
1

>  <ligand_efficiency>  (212) 
{u'le': u'0.24', u'bei': u'12.96', u'sei': u'4.24', u'lle': u'1.55'}

>  <standard_flag>  (212) 
True

>  <molecule_chembl_id>  (212) 
CHEMBL151312

>  <target_organism>  (212) 
Homo sapiens

>  <standard_units>  (212) 
nM

>  <record_id>  (212) 
292903

>  <document_chembl_id>  (212) 
CHEMBL1135401

>  <bao_format>  (212) 
BAO_0000357

>  <data_validity_description>  (212) 
None

>  <activity_id>  (212) 
881053

>  <standard_type>  (212) 
IC50

>  <target_chembl_id>  (212) 
CHEMBL202

>  <data_validity_comment>  (212) 
None

>  <published_value>  (212) 
7300

>  <document_year>  (212) 
2002

>  <target_pref_name>  (212) 
Dihydrofolate reductase

>  <assay_chembl_id>  (212) 
CHEMBL669986

>  <standard_relation>  (212) 
=

>  <assay_description>  (212) 
Antimycobacterial activity against human dihydrofolate reductase (hDHFR)

>  <published_relation>  (212) 
=

>  <standard_value>  (212) 
7300

>  <qudt_units>  (212) 
http://www.openphacts.org/units/Nanomolar

>  <target_tax_id>  (212) 
9606

>  <bao_label>  (212) 
single protein format

>  <published_units>  (212) 
nM

>  <pchembl_value>  (212) 
5.14

>  <published_type>  (212) 
IC50

>  <activity_comment>  (212) 
None

$$$$

     RDKit          

 32 34  0  0  0  0  0  0  0  0999 V2000
    0.0000    0.0000    0.0000 C   0  0  0  0  0  0  0  0  0  0  0  0
    0.0000    0.0000    0.0000 C   0  0  0  0  0  0  0  0  0  0  0  0
    0.0000    0.0000    0.0000 C   0  0  0  0  0  0  0  0  0  0  0  0
    0.0000    0.0000    0.0000 C   0  0  0  0  0  0  0  0  0  0  0  0
    0.0000    0.0000    0.0000 C   0  0  0  0  0  0  0  0  0  0  0  0
    0.0000    0.0000    0.0000 O   0  0  0  0  0  0  0  0  0  0  0  0
    0.0000    0.0000    0.0000 C   0  0  0  0  0  0  0  0  0  0  0  0
    0.0000    0.0000    0.0000 N   0  0  0  0  0  0  0  0  0  0  0  0
    0.0000    0.0000    0.0000 C   0  0  0  0  0  0  0  0  0  0  0  0
    0.0000    0.0000    0.0000 N   0  0  0  0  0  0  0  0  0  0  0  0
    0.0000    0.0000    0.0000 N   0  0  0  0  0  0  0  0  0  0  0  0
    0.0000    0.0000    0.0000 C   0  0  0  0  0  0  0  0  0  0  0  0
    0.0000    0.0000    0.0000 N   0  0  0  0  0  0  0  0  0  0  0  0
    0.0000    0.0000    0.0000 C   0  0  0  0  0  0  0  0  0  0  0  0
    0.0000    0.0000    0.0000 C   0  0  0  0  0  0  0  0  0  0  0  0
    0.0000    0.0000    0.0000 C   0  0  0  0  0  0  0  0  0  0  0  0
    0.0000    0.0000    0.0000 C   0  0  0  0  0  0  0  0  0  0  0  0
    0.0000    0.0000    0.0000 C   0  0  0  0  0  0  0  0  0  0  0  0
    0.0000    0.0000    0.0000 C   0  0  0  0  0  0  0  0  0  0  0  0
    0.0000    0.0000    0.0000 C   0  0  0  0  0  0  0  0  0  0  0  0
    0.0000    0.0000    0.0000 C   0  0  0  0  0  0  0  0  0  0  0  0
    0.0000    0.0000    0.0000 O   0  0  0  0  0  0  0  0  0  0  0  0
    0.0000    0.0000    0.0000 N   0  0  0  0  0  0  0  0  0  0  0  0
    0.0000    0.0000    0.0000 C   0  0  0  0  0  0  0  0  0  0  0  0
    0.0000    0.0000    0.0000 C   0  0  0  0  0  0  0  0  0  0  0  0
    0.0000    0.0000    0.0000 C   0  0  0  0  0  0  0  0  0  0  0  0
    0.0000    0.0000    0.0000 C   0  0  0  0  0  0  0  0  0  0  0  0
    0.0000    0.0000    0.0000 O   0  0  0  0  0  0  0  0  0  0  0  0
    0.0000    0.0000    0.0000 O   0  0  0  0  0  0  0  0  0  0  0  0
    0.0000    0.0000    0.0000 C   0  0  0  0  0  0  0  0  0  0  0  0
    0.0000    0.0000    0.0000 O   0  0  0  0  0  0  0  0  0  0  0  0
    0.0000    0.0000    0.0000 O   0  0  0  0  0  0  0  0  0  0  0  0
  1  2  1  0
  2  3  1  0
  3  4  1  0
  4  5  2  0
  5  6  1  0
  6  7  1  0
  7  8  2  0
  8  9  1  0
  9 10  1  0
  9 11  2  0
 11 12  1  0
 12 13  1  0
 12 14  2  0
  2 15  1  0
 15 16  2  0
 16 17  1  0
 17 18  2  0
 18 19  1  0
 19 20  2  0
 18 21  1  0
 21 22  2  0
 21 23  1  0
 23 24  1  0
 24 25  1  0
 25 26  1  0
 26 27  1  0
 27 28  2  0
 27 29  1  0
 24 30  1  0
 30 31  2  0
 30 32  1  0
 14  4  1  0
 14  7  1  0
 20 15  1  0
M  END
>  <pIC50>  (213) 
6.38

>  <ChEMBL_ID>  (213) 
CHEMBL430872

>  <document_journal>  (213) 
J. Med. Chem.

>  <bao_endpoint>  (213) 
BAO_0000190

>  <potential_duplicate>  (213) 
False

>  <uo_units>  (213) 
UO_0000065

>  <canonical_smiles>  (213) 
CC(Cc1coc2nc(N)nc(N)c12)c3ccc(cc3)C(=O)N[C@@H](CCC(=O)O)C(=O)O

>  <parent_molecule_chembl_id>  (213) 
CHEMBL430872

>  <assay_type>  (213) 
B

>  <src_id>  (213) 
1

>  <ligand_efficiency>  (213) 
{u'le': u'0.27', u'bei': u'14.45', u'sei': u'3.28', u'lle': u'4.7'}

>  <standard_flag>  (213) 
True

>  <molecule_chembl_id>  (213) 
CHEMBL430872

>  <target_organism>  (213) 
Homo sapiens

>  <standard_units>  (213) 
nM

>  <record_id>  (213) 
198908

>  <document_chembl_id>  (213) 
CHEMBL1133617

>  <bao_format>  (213) 
BAO_0000357

>  <data_validity_description>  (213) 
None

>  <activity_id>  (213) 
882149

>  <standard_type>  (213) 
IC50

>  <target_chembl_id>  (213) 
CHEMBL202

>  <data_validity_comment>  (213) 
None

>  <published_value>  (213) 
0.42

>  <document_year>  (213) 
2000

>  <target_pref_name>  (213) 
Dihydrofolate reductase

>  <assay_chembl_id>  (213) 
CHEMBL668081

>  <standard_relation>  (213) 
=

>  <assay_description>  (213) 
Inhibitory concentration against recombinant human (rh) Dihydrofolate reductase

>  <published_relation>  (213) 
=

>  <standard_value>  (213) 
420

>  <qudt_units>  (213) 
http://www.openphacts.org/units/Nanomolar

>  <target_tax_id>  (213) 
9606

>  <bao_label>  (213) 
single protein format

>  <published_units>  (213) 
uM

>  <pchembl_value>  (213) 
6.38

>  <published_type>  (213) 
IC50

>  <activity_comment>  (213) 
None

$$$$

     RDKit          

 25 27  0  0  0  0  0  0  0  0999 V2000
    0.0000    0.0000    0.0000 C   0  0  0  0  0  0  0  0  0  0  0  0
    0.0000    0.0000    0.0000 O   0  0  0  0  0  0  0  0  0  0  0  0
    0.0000    0.0000    0.0000 C   0  0  0  0  0  0  0  0  0  0  0  0
    0.0000    0.0000    0.0000 C   0  0  0  0  0  0  0  0  0  0  0  0
    0.0000    0.0000    0.0000 C   0  0  0  0  0  0  0  0  0  0  0  0
    0.0000    0.0000    0.0000 C   0  0  0  0  0  0  0  0  0  0  0  0
    0.0000    0.0000    0.0000 O   0  0  0  0  0  0  0  0  0  0  0  0
    0.0000    0.0000    0.0000 C   0  0  0  0  0  0  0  0  0  0  0  0
    0.0000    0.0000    0.0000 C   0  0  0  0  0  0  0  0  0  0  0  0
    0.0000    0.0000    0.0000 N   0  0  0  0  0  0  0  0  0  0  0  0
    0.0000    0.0000    0.0000 C   0  0  0  0  0  0  0  0  0  0  0  0
    0.0000    0.0000    0.0000 C   0  0  0  0  0  0  0  0  0  0  0  0
    0.0000    0.0000    0.0000 C   0  0  0  0  0  0  0  0  0  0  0  0
    0.0000    0.0000    0.0000 N   0  0  0  0  0  0  0  0  0  0  0  0
    0.0000    0.0000    0.0000 C   0  0  0  0  0  0  0  0  0  0  0  0
    0.0000    0.0000    0.0000 N   0  0  0  0  0  0  0  0  0  0  0  0
    0.0000    0.0000    0.0000 C   0  0  0  0  0  0  0  0  0  0  0  0
    0.0000    0.0000    0.0000 N   0  0  0  0  0  0  0  0  0  0  0  0
    0.0000    0.0000    0.0000 N   0  0  0  0  0  0  0  0  0  0  0  0
    0.0000    0.0000    0.0000 C   0  0  0  0  0  0  0  0  0  0  0  0
    0.0000    0.0000    0.0000 N   0  0  0  0  0  0  0  0  0  0  0  0
    0.0000    0.0000    0.0000 C   0  0  0  0  0  0  0  0  0  0  0  0
    0.0000    0.0000    0.0000 C   0  0  0  0  0  0  0  0  0  0  0  0
    0.0000    0.0000    0.0000 C   0  0  0  0  0  0  0  0  0  0  0  0
    0.0000    0.0000    0.0000 C   0  0  0  0  0  0  0  0  0  0  0  0
  1  2  1  0
  2  3  1  0
  3  4  2  0
  4  5  1  0
  5  6  2  0
  6  7  1  0
  7  8  1  0
  6  9  1  0
  9 10  1  0
 10 11  1  0
 11 12  1  0
 12 13  2  0
 13 14  1  0
 14 15  2  0
 15 16  1  0
 16 17  2  0
 17 18  1  0
 17 19  1  0
 19 20  2  0
 20 21  1  0
 20 22  1  0
 22 23  2  0
 23 24  1  0
  9 25  2  0
 25  3  1  0
 23 12  1  0
 22 15  1  0
M  END
>  <pIC50>  (214) 
6.0

>  <ChEMBL_ID>  (214) 
CHEMBL23021

>  <document_journal>  (214) 
J. Med. Chem.

>  <bao_endpoint>  (214) 
BAO_0000190

>  <potential_duplicate>  (214) 
False

>  <uo_units>  (214) 
UO_0000065

>  <canonical_smiles>  (214) 
COc1ccc(OC)c(NCc2cnc3nc(N)nc(N)c3c2C)c1

>  <parent_molecule_chembl_id>  (214) 
CHEMBL23021

>  <assay_type>  (214) 
B

>  <src_id>  (214) 
1

>  <ligand_efficiency>  (214) 
{u'le': u'0.33', u'bei': u'17.63', u'sei': u'4.95', u'lle': u'4.15'}

>  <standard_flag>  (214) 
True

>  <molecule_chembl_id>  (214) 
CHEMBL23021

>  <target_organism>  (214) 
Homo sapiens

>  <standard_units>  (214) 
nM

>  <record_id>  (214) 
292869

>  <document_chembl_id>  (214) 
CHEMBL1135401

>  <bao_format>  (214) 
BAO_0000357

>  <data_validity_description>  (214) 
None

>  <activity_id>  (214) 
882240

>  <standard_type>  (214) 
IC50

>  <target_chembl_id>  (214) 
CHEMBL202

>  <data_validity_comment>  (214) 
None

>  <published_value>  (214) 
1000

>  <document_year>  (214) 
2002

>  <target_pref_name>  (214) 
Dihydrofolate reductase

>  <assay_chembl_id>  (214) 
CHEMBL669986

>  <standard_relation>  (214) 
=

>  <assay_description>  (214) 
Antimycobacterial activity against human dihydrofolate reductase (hDHFR)

>  <published_relation>  (214) 
=

>  <standard_value>  (214) 
1000

>  <qudt_units>  (214) 
http://www.openphacts.org/units/Nanomolar

>  <target_tax_id>  (214) 
9606

>  <bao_label>  (214) 
single protein format

>  <published_units>  (214) 
nM

>  <pchembl_value>  (214) 
6

>  <published_type>  (214) 
IC50

>  <activity_comment>  (214) 
None

$$$$

     RDKit          

 23 25  0  0  0  0  0  0  0  0999 V2000
    0.0000    0.0000    0.0000 C   0  0  0  0  0  0  0  0  0  0  0  0
    0.0000    0.0000    0.0000 C   0  0  0  0  0  0  0  0  0  0  0  0
    0.0000    0.0000    0.0000 C   0  0  0  0  0  0  0  0  0  0  0  0
    0.0000    0.0000    0.0000 C   0  0  0  0  0  0  0  0  0  0  0  0
    0.0000    0.0000    0.0000 C   0  0  0  0  0  0  0  0  0  0  0  0
    0.0000    0.0000    0.0000 N   0  0  0  0  0  0  0  0  0  0  0  0
    0.0000    0.0000    0.0000 C   0  0  0  0  0  0  0  0  0  0  0  0
    0.0000    0.0000    0.0000 C   0  0  0  0  0  0  0  0  0  0  0  0
    0.0000    0.0000    0.0000 C   0  0  0  0  0  0  0  0  0  0  0  0
    0.0000    0.0000    0.0000 N   0  0  0  0  0  0  0  0  0  0  0  0
    0.0000    0.0000    0.0000 C   0  0  0  0  0  0  0  0  0  0  0  0
    0.0000    0.0000    0.0000 N   0  0  0  0  0  0  0  0  0  0  0  0
    0.0000    0.0000    0.0000 C   0  0  0  0  0  0  0  0  0  0  0  0
    0.0000    0.0000    0.0000 N   0  0  0  0  0  0  0  0  0  0  0  0
    0.0000    0.0000    0.0000 N   0  0  0  0  0  0  0  0  0  0  0  0
    0.0000    0.0000    0.0000 C   0  0  0  0  0  0  0  0  0  0  0  0
    0.0000    0.0000    0.0000 N   0  0  0  0  0  0  0  0  0  0  0  0
    0.0000    0.0000    0.0000 C   0  0  0  0  0  0  0  0  0  0  0  0
    0.0000    0.0000    0.0000 C   0  0  0  0  0  0  0  0  0  0  0  0
    0.0000    0.0000    0.0000 C   0  0  0  0  0  0  0  0  0  0  0  0
    0.0000    0.0000    0.0000 C   0  0  0  0  0  0  0  0  0  0  0  0
    0.0000    0.0000    0.0000 C   0  0  0  0  0  0  0  0  0  0  0  0
    0.0000    0.0000    0.0000 Cl  0  0  0  0  0  0  0  0  0  0  0  0
  1  2  1  0
  2  3  2  0
  3  4  1  0
  4  5  2  0
  5  6  1  0
  6  7  1  0
  7  8  1  0
  8  9  2  0
  9 10  1  0
 10 11  2  0
 11 12  1  0
 12 13  2  0
 13 14  1  0
 13 15  1  0
 15 16  2  0
 16 17  1  0
 16 18  1  0
 18 19  2  0
 19 20  1  0
  5 21  1  0
 21 22  2  0
 22 23  1  0
 22  2  1  0
 19  8  1  0
 18 11  1  0
M  END
>  <pIC50>  (215) 
8.17

>  <ChEMBL_ID>  (215) 
CHEMBL347974

>  <document_journal>  (215) 
J. Med. Chem.

>  <bao_endpoint>  (215) 
BAO_0000190

>  <potential_duplicate>  (215) 
False

>  <uo_units>  (215) 
UO_0000065

>  <canonical_smiles>  (215) 
Cc1ccc(NCc2cnc3nc(N)nc(N)c3c2C)cc1Cl

>  <parent_molecule_chembl_id>  (215) 
CHEMBL347974

>  <assay_type>  (215) 
B

>  <src_id>  (215) 
1

>  <ligand_efficiency>  (215) 
{u'le': u'0.49', u'bei': u'24.86', u'sei': u'7.96', u'lle': u'5.14'}

>  <standard_flag>  (215) 
True

>  <molecule_chembl_id>  (215) 
CHEMBL347974

>  <target_organism>  (215) 
Homo sapiens

>  <standard_units>  (215) 
nM

>  <record_id>  (215) 
292917

>  <document_chembl_id>  (215) 
CHEMBL1135401

>  <bao_format>  (215) 
BAO_0000357

>  <data_validity_description>  (215) 
None

>  <activity_id>  (215) 
882244

>  <standard_type>  (215) 
IC50

>  <target_chembl_id>  (215) 
CHEMBL202

>  <data_validity_comment>  (215) 
None

>  <published_value>  (215) 
6.7

>  <document_year>  (215) 
2002

>  <target_pref_name>  (215) 
Dihydrofolate reductase

>  <assay_chembl_id>  (215) 
CHEMBL669986

>  <standard_relation>  (215) 
=

>  <assay_description>  (215) 
Antimycobacterial activity against human dihydrofolate reductase (hDHFR)

>  <published_relation>  (215) 
=

>  <standard_value>  (215) 
6.7

>  <qudt_units>  (215) 
http://www.openphacts.org/units/Nanomolar

>  <target_tax_id>  (215) 
9606

>  <bao_label>  (215) 
single protein format

>  <published_units>  (215) 
nM

>  <pchembl_value>  (215) 
8.17

>  <published_type>  (215) 
IC50

>  <activity_comment>  (215) 
None

$$$$

     RDKit          

 25 28  0  0  0  0  0  0  0  0999 V2000
    0.0000    0.0000    0.0000 C   0  0  0  0  0  0  0  0  0  0  0  0
    0.0000    0.0000    0.0000 C   0  0  0  0  0  0  0  0  0  0  0  0
    0.0000    0.0000    0.0000 C   0  0  0  0  0  0  0  0  0  0  0  0
    0.0000    0.0000    0.0000 C   0  0  0  0  0  0  0  0  0  0  0  0
    0.0000    0.0000    0.0000 N   0  0  0  0  0  0  0  0  0  0  0  0
    0.0000    0.0000    0.0000 C   0  0  0  0  0  0  0  0  0  0  0  0
    0.0000    0.0000    0.0000 C   0  0  0  0  0  0  0  0  0  0  0  0
    0.0000    0.0000    0.0000 C   0  0  0  0  0  0  0  0  0  0  0  0
    0.0000    0.0000    0.0000 C   0  0  0  0  0  0  0  0  0  0  0  0
    0.0000    0.0000    0.0000 C   0  0  0  0  0  0  0  0  0  0  0  0
    0.0000    0.0000    0.0000 C   0  0  0  0  0  0  0  0  0  0  0  0
    0.0000    0.0000    0.0000 N   0  0  0  0  0  0  0  0  0  0  0  0
    0.0000    0.0000    0.0000 C   0  0  0  0  0  0  0  0  0  0  0  0
    0.0000    0.0000    0.0000 C   0  0  0  0  0  0  0  0  0  0  0  0
    0.0000    0.0000    0.0000 C   0  0  0  0  0  0  0  0  0  0  0  0
    0.0000    0.0000    0.0000 C   0  0  0  0  0  0  0  0  0  0  0  0
    0.0000    0.0000    0.0000 N   0  0  0  0  0  0  0  0  0  0  0  0
    0.0000    0.0000    0.0000 C   0  0  0  0  0  0  0  0  0  0  0  0
    0.0000    0.0000    0.0000 N   0  0  0  0  0  0  0  0  0  0  0  0
    0.0000    0.0000    0.0000 C   0  0  0  0  0  0  0  0  0  0  0  0
    0.0000    0.0000    0.0000 N   0  0  0  0  0  0  0  0  0  0  0  0
    0.0000    0.0000    0.0000 N   0  0  0  0  0  0  0  0  0  0  0  0
    0.0000    0.0000    0.0000 C   0  0  0  0  0  0  0  0  0  0  0  0
    0.0000    0.0000    0.0000 N   0  0  0  0  0  0  0  0  0  0  0  0
    0.0000    0.0000    0.0000 C   0  0  0  0  0  0  0  0  0  0  0  0
  1  2  1  0
  2  3  2  0
  3  4  1  0
  4  5  1  0
  5  6  1  0
  6  7  2  0
  7  8  1  0
  8  9  2  0
  9 10  1  0
 10 11  2  0
 11 12  1  0
 12 13  2  0
 13 14  1  0
 14 15  2  0
  3 16  1  0
 16 17  2  0
 17 18  1  0
 18 19  2  0
 19 20  1  0
 20 21  1  0
 20 22  2  0
 22 23  1  0
 23 24  1  0
 23 25  2  0
 25  2  1  0
 15  6  1  0
 15 10  1  0
 25 18  1  0
M  END
>  <pIC50>  (216) 
8.4

>  <ChEMBL_ID>  (216) 
CHEMBL346666

>  <document_journal>  (216) 
J. Med. Chem.

>  <bao_endpoint>  (216) 
BAO_0000190

>  <potential_duplicate>  (216) 
False

>  <uo_units>  (216) 
UO_0000065

>  <canonical_smiles>  (216) 
Cc1c(CNc2cccc3cnccc23)cnc4nc(N)nc(N)c14

>  <parent_molecule_chembl_id>  (216) 
CHEMBL346666

>  <assay_type>  (216) 
B

>  <src_id>  (216) 
1

>  <ligand_efficiency>  (216) 
{u'le': u'0.46', u'bei': u'25.34', u'sei': u'7.26', u'lle': u'6.76'}

>  <standard_flag>  (216) 
True

>  <molecule_chembl_id>  (216) 
CHEMBL346666

>  <target_organism>  (216) 
Homo sapiens

>  <standard_units>  (216) 
nM

>  <record_id>  (216) 
292912

>  <document_chembl_id>  (216) 
CHEMBL1135401

>  <bao_format>  (216) 
BAO_0000357

>  <data_validity_description>  (216) 
None

>  <activity_id>  (216) 
882248

>  <standard_type>  (216) 
IC50

>  <target_chembl_id>  (216) 
CHEMBL202

>  <data_validity_comment>  (216) 
None

>  <published_value>  (216) 
4

>  <document_year>  (216) 
2002

>  <target_pref_name>  (216) 
Dihydrofolate reductase

>  <assay_chembl_id>  (216) 
CHEMBL669986

>  <standard_relation>  (216) 
=

>  <assay_description>  (216) 
Antimycobacterial activity against human dihydrofolate reductase (hDHFR)

>  <published_relation>  (216) 
=

>  <standard_value>  (216) 
4

>  <qudt_units>  (216) 
http://www.openphacts.org/units/Nanomolar

>  <target_tax_id>  (216) 
9606

>  <bao_label>  (216) 
single protein format

>  <published_units>  (216) 
nM

>  <pchembl_value>  (216) 
8.4

>  <published_type>  (216) 
IC50

>  <activity_comment>  (216) 
None

$$$$

     RDKit          

 28 32  0  0  0  0  0  0  0  0999 V2000
    0.0000    0.0000    0.0000 C   0  0  0  0  0  0  0  0  0  0  0  0
    0.0000    0.0000    0.0000 C   0  0  0  0  0  0  0  0  0  0  0  0
    0.0000    0.0000    0.0000 C   0  0  0  0  0  0  0  0  0  0  0  0
    0.0000    0.0000    0.0000 C   0  0  0  0  0  0  0  0  0  0  0  0
    0.0000    0.0000    0.0000 N   0  0  0  0  0  0  0  0  0  0  0  0
    0.0000    0.0000    0.0000 C   0  0  0  0  0  0  0  0  0  0  0  0
    0.0000    0.0000    0.0000 C   0  0  0  0  0  0  0  0  0  0  0  0
    0.0000    0.0000    0.0000 C   0  0  0  0  0  0  0  0  0  0  0  0
    0.0000    0.0000    0.0000 C   0  0  0  0  0  0  0  0  0  0  0  0
    0.0000    0.0000    0.0000 C   0  0  0  0  0  0  0  0  0  0  0  0
    0.0000    0.0000    0.0000 C   0  0  0  0  0  0  0  0  0  0  0  0
    0.0000    0.0000    0.0000 C   0  0  0  0  0  0  0  0  0  0  0  0
    0.0000    0.0000    0.0000 C   0  0  0  0  0  0  0  0  0  0  0  0
    0.0000    0.0000    0.0000 C   0  0  0  0  0  0  0  0  0  0  0  0
    0.0000    0.0000    0.0000 C   0  0  0  0  0  0  0  0  0  0  0  0
    0.0000    0.0000    0.0000 C   0  0  0  0  0  0  0  0  0  0  0  0
    0.0000    0.0000    0.0000 C   0  0  0  0  0  0  0  0  0  0  0  0
    0.0000    0.0000    0.0000 C   0  0  0  0  0  0  0  0  0  0  0  0
    0.0000    0.0000    0.0000 C   0  0  0  0  0  0  0  0  0  0  0  0
    0.0000    0.0000    0.0000 N   0  0  0  0  0  0  0  0  0  0  0  0
    0.0000    0.0000    0.0000 C   0  0  0  0  0  0  0  0  0  0  0  0
    0.0000    0.0000    0.0000 N   0  0  0  0  0  0  0  0  0  0  0  0
    0.0000    0.0000    0.0000 C   0  0  0  0  0  0  0  0  0  0  0  0
    0.0000    0.0000    0.0000 N   0  0  0  0  0  0  0  0  0  0  0  0
    0.0000    0.0000    0.0000 N   0  0  0  0  0  0  0  0  0  0  0  0
    0.0000    0.0000    0.0000 C   0  0  0  0  0  0  0  0  0  0  0  0
    0.0000    0.0000    0.0000 N   0  0  0  0  0  0  0  0  0  0  0  0
    0.0000    0.0000    0.0000 C   0  0  0  0  0  0  0  0  0  0  0  0
  1  2  1  0
  2  3  2  0
  3  4  1  0
  4  5  1  0
  5  6  1  0
  6  7  2  0
  7  8  1  0
  8  9  2  0
  9 10  1  0
 10 11  1  0
 11 12  1  0
 12 13  2  0
 13 14  1  0
 14 15  2  0
 15 16  1  0
 16 17  2  0
 10 18  2  0
  3 19  1  0
 19 20  2  0
 20 21  1  0
 21 22  2  0
 22 23  1  0
 23 24  1  0
 23 25  2  0
 25 26  1  0
 26 27  1  0
 26 28  2  0
 28  2  1  0
 18  6  1  0
 17  9  1  0
 17 12  1  0
 28 21  1  0
M  END
>  <pIC50>  (217) 
8.17

>  <ChEMBL_ID>  (217) 
CHEMBL150082

>  <document_journal>  (217) 
J. Med. Chem.

>  <bao_endpoint>  (217) 
BAO_0000190

>  <potential_duplicate>  (217) 
False

>  <uo_units>  (217) 
UO_0000065

>  <canonical_smiles>  (217) 
Cc1c(CNc2ccc3c(Cc4ccccc34)c2)cnc5nc(N)nc(N)c15

>  <parent_molecule_chembl_id>  (217) 
CHEMBL150082

>  <assay_type>  (217) 
B

>  <src_id>  (217) 
1

>  <ligand_efficiency>  (217) 
{u'le': u'0.4', u'bei': u'22.19', u'sei': u'7.96', u'lle': u'4.63'}

>  <standard_flag>  (217) 
True

>  <molecule_chembl_id>  (217) 
CHEMBL150082

>  <target_organism>  (217) 
Homo sapiens

>  <standard_units>  (217) 
nM

>  <record_id>  (217) 
292876

>  <document_chembl_id>  (217) 
CHEMBL1135401

>  <bao_format>  (217) 
BAO_0000357

>  <data_validity_description>  (217) 
None

>  <activity_id>  (217) 
882286

>  <standard_type>  (217) 
IC50

>  <target_chembl_id>  (217) 
CHEMBL202

>  <data_validity_comment>  (217) 
None

>  <published_value>  (217) 
6.7

>  <document_year>  (217) 
2002

>  <target_pref_name>  (217) 
Dihydrofolate reductase

>  <assay_chembl_id>  (217) 
CHEMBL669986

>  <standard_relation>  (217) 
=

>  <assay_description>  (217) 
Antimycobacterial activity against human dihydrofolate reductase (hDHFR)

>  <published_relation>  (217) 
=

>  <standard_value>  (217) 
6.7

>  <qudt_units>  (217) 
http://www.openphacts.org/units/Nanomolar

>  <target_tax_id>  (217) 
9606

>  <bao_label>  (217) 
single protein format

>  <published_units>  (217) 
nM

>  <pchembl_value>  (217) 
8.17

>  <published_type>  (217) 
IC50

>  <activity_comment>  (217) 
None

$$$$

     RDKit          

 31 33  0  0  0  0  0  0  0  0999 V2000
    0.0000    0.0000    0.0000 N   0  0  0  0  0  0  0  0  0  0  0  0
    0.0000    0.0000    0.0000 C   0  0  0  0  0  0  0  0  0  0  0  0
    0.0000    0.0000    0.0000 N   0  0  0  0  0  0  0  0  0  0  0  0
    0.0000    0.0000    0.0000 C   0  0  0  0  0  0  0  0  0  0  0  0
    0.0000    0.0000    0.0000 N   0  0  0  0  0  0  0  0  0  0  0  0
    0.0000    0.0000    0.0000 C   0  0  0  0  0  0  0  0  0  0  0  0
    0.0000    0.0000    0.0000 C   0  0  0  0  0  0  0  0  0  0  0  0
    0.0000    0.0000    0.0000 C   0  0  0  0  0  0  0  0  0  0  0  0
    0.0000    0.0000    0.0000 N   0  0  0  0  0  0  0  0  0  0  0  0
    0.0000    0.0000    0.0000 C   0  0  0  0  0  0  0  0  0  0  0  0
    0.0000    0.0000    0.0000 C   0  0  0  0  0  0  0  0  0  0  0  0
    0.0000    0.0000    0.0000 C   0  0  0  0  0  0  0  0  0  0  0  0
    0.0000    0.0000    0.0000 C   0  0  0  0  0  0  0  0  0  0  0  0
    0.0000    0.0000    0.0000 C   0  0  0  0  0  0  0  0  0  0  0  0
    0.0000    0.0000    0.0000 C   0  0  0  0  0  0  0  0  0  0  0  0
    0.0000    0.0000    0.0000 C   0  0  0  0  0  0  0  0  0  0  0  0
    0.0000    0.0000    0.0000 O   0  0  0  0  0  0  0  0  0  0  0  0
    0.0000    0.0000    0.0000 N   0  0  0  0  0  0  0  0  0  0  0  0
    0.0000    0.0000    0.0000 C   0  0  0  0  0  0  0  0  0  0  0  0
    0.0000    0.0000    0.0000 C   0  0  0  0  0  0  0  0  0  0  0  0
    0.0000    0.0000    0.0000 C   0  0  0  0  0  0  0  0  0  0  0  0
    0.0000    0.0000    0.0000 C   0  0  0  0  0  0  0  0  0  0  0  0
    0.0000    0.0000    0.0000 O   0  0  0  0  0  0  0  0  0  0  0  0
    0.0000    0.0000    0.0000 O   0  0  0  0  0  0  0  0  0  0  0  0
    0.0000    0.0000    0.0000 C   0  0  0  0  0  0  0  0  0  0  0  0
    0.0000    0.0000    0.0000 O   0  0  0  0  0  0  0  0  0  0  0  0
    0.0000    0.0000    0.0000 O   0  0  0  0  0  0  0  0  0  0  0  0
    0.0000    0.0000    0.0000 C   0  0  0  0  0  0  0  0  0  0  0  0
    0.0000    0.0000    0.0000 O   0  0  0  0  0  0  0  0  0  0  0  0
    0.0000    0.0000    0.0000 C   0  0  0  0  0  0  0  0  0  0  0  0
    0.0000    0.0000    0.0000 N   0  0  0  0  0  0  0  0  0  0  0  0
  1  2  1  0
  2  3  2  0
  3  4  1  0
  4  5  1  0
  4  6  2  0
  6  7  1  0
  7  8  1  0
  8  9  1  0
  9 10  1  0
 10 11  2  0
 11 12  1  0
 12 13  2  0
 13 14  1  0
 14 15  2  0
 13 16  1  0
 16 17  2  0
 16 18  1  0
 18 19  1  0
 19 20  1  0
 20 21  1  0
 21 22  1  0
 22 23  2  0
 22 24  1  0
 19 25  1  0
 25 26  2  0
 25 27  1  0
  7 28  2  0
 28 29  1  0
 29 30  1  0
 30 31  2  0
 31  2  1  0
 30  6  1  0
 15 10  1  0
M  END
>  <pIC50>  (218) 
6.4275

>  <ChEMBL_ID>  (218) 
CHEMBL106628

>  <document_journal>  (218) 
J. Med. Chem.

>  <bao_endpoint>  (218) 
BAO_0000190

>  <potential_duplicate>  (218) 
True

>  <uo_units>  (218) 
UO_0000065

>  <canonical_smiles>  (218) 
Nc1nc(N)c2c(CNc3ccc(cc3)C(=O)N[C@@H](CCC(=O)O)C(=O)O)coc2n1

>  <parent_molecule_chembl_id>  (218) 
CHEMBL106628

>  <assay_type>  (218) 
B

>  <src_id>  (218) 
1

>  <ligand_efficiency>  (218) 
{u'le': u'0.28', u'bei': u'14.82', u'sei': u'3.07', u'lle': u'5.96'}

>  <standard_flag>  (218) 
True

>  <molecule_chembl_id>  (218) 
CHEMBL106628

>  <target_organism>  (218) 
Homo sapiens

>  <standard_units>  (218) 
nM

>  <record_id>  (218) 
198910

>  <document_chembl_id>  (218) 
CHEMBL1133617

>  <bao_format>  (218) 
BAO_0000357

>  <data_validity_description>  (218) 
None

>  <activity_id>  (218) 
883339

>  <standard_type>  (218) 
IC50

>  <target_chembl_id>  (218) 
CHEMBL202

>  <data_validity_comment>  (218) 
None

>  <published_value>  (218) 
0.45

>  <document_year>  (218) 
2000

>  <target_pref_name>  (218) 
Dihydrofolate reductase

>  <assay_chembl_id>  (218) 
CHEMBL668081

>  <standard_relation>  (218) 
=

>  <assay_description>  (218) 
Inhibitory concentration against recombinant human (rh) Dihydrofolate reductase

>  <published_relation>  (218) 
=

>  <standard_value>  (218) 
450

>  <qudt_units>  (218) 
http://www.openphacts.org/units/Nanomolar

>  <target_tax_id>  (218) 
9606

>  <bao_label>  (218) 
single protein format

>  <published_units>  (218) 
uM

>  <pchembl_value>  (218) 
6.35

>  <published_type>  (218) 
IC50

>  <activity_comment>  (218) 
None

$$$$

     RDKit          

 23 25  0  0  0  0  0  0  0  0999 V2000
    0.0000    0.0000    0.0000 C   0  0  0  0  0  0  0  0  0  0  0  0
    0.0000    0.0000    0.0000 C   0  0  0  0  0  0  0  0  0  0  0  0
    0.0000    0.0000    0.0000 C   0  0  0  0  0  0  0  0  0  0  0  0
    0.0000    0.0000    0.0000 C   0  0  0  0  0  0  0  0  0  0  0  0
    0.0000    0.0000    0.0000 N   0  0  0  0  0  0  0  0  0  0  0  0
    0.0000    0.0000    0.0000 C   0  0  0  0  0  0  0  0  0  0  0  0
    0.0000    0.0000    0.0000 C   0  0  0  0  0  0  0  0  0  0  0  0
    0.0000    0.0000    0.0000 C   0  0  0  0  0  0  0  0  0  0  0  0
    0.0000    0.0000    0.0000 Br  0  0  0  0  0  0  0  0  0  0  0  0
    0.0000    0.0000    0.0000 C   0  0  0  0  0  0  0  0  0  0  0  0
    0.0000    0.0000    0.0000 C   0  0  0  0  0  0  0  0  0  0  0  0
    0.0000    0.0000    0.0000 C   0  0  0  0  0  0  0  0  0  0  0  0
    0.0000    0.0000    0.0000 Br  0  0  0  0  0  0  0  0  0  0  0  0
    0.0000    0.0000    0.0000 C   0  0  0  0  0  0  0  0  0  0  0  0
    0.0000    0.0000    0.0000 N   0  0  0  0  0  0  0  0  0  0  0  0
    0.0000    0.0000    0.0000 C   0  0  0  0  0  0  0  0  0  0  0  0
    0.0000    0.0000    0.0000 N   0  0  0  0  0  0  0  0  0  0  0  0
    0.0000    0.0000    0.0000 C   0  0  0  0  0  0  0  0  0  0  0  0
    0.0000    0.0000    0.0000 N   0  0  0  0  0  0  0  0  0  0  0  0
    0.0000    0.0000    0.0000 N   0  0  0  0  0  0  0  0  0  0  0  0
    0.0000    0.0000    0.0000 C   0  0  0  0  0  0  0  0  0  0  0  0
    0.0000    0.0000    0.0000 N   0  0  0  0  0  0  0  0  0  0  0  0
    0.0000    0.0000    0.0000 C   0  0  0  0  0  0  0  0  0  0  0  0
  1  2  1  0
  2  3  2  0
  3  4  1  0
  4  5  1  0
  5  6  1  0
  6  7  2  0
  7  8  1  0
  8  9  1  0
  8 10  2  0
 10 11  1  0
 11 12  2  0
 12 13  1  0
  3 14  1  0
 14 15  2  0
 15 16  1  0
 16 17  2  0
 17 18  1  0
 18 19  1  0
 18 20  2  0
 20 21  1  0
 21 22  1  0
 21 23  2  0
 23  2  1  0
 12  6  1  0
 23 16  1  0
M  END
>  <pIC50>  (219) 
8.34

>  <ChEMBL_ID>  (219) 
CHEMBL147131

>  <document_journal>  (219) 
J. Med. Chem.

>  <bao_endpoint>  (219) 
BAO_0000190

>  <potential_duplicate>  (219) 
False

>  <uo_units>  (219) 
UO_0000065

>  <canonical_smiles>  (219) 
Cc1c(CNc2cc(Br)ccc2Br)cnc3nc(N)nc(N)c13

>  <parent_molecule_chembl_id>  (219) 
CHEMBL147131

>  <assay_type>  (219) 
B

>  <src_id>  (219) 
1

>  <ligand_efficiency>  (219) 
{u'le': u'0.5', u'bei': u'19.03', u'sei': u'8.11', u'lle': u'4.96'}

>  <standard_flag>  (219) 
True

>  <molecule_chembl_id>  (219) 
CHEMBL147131

>  <target_organism>  (219) 
Homo sapiens

>  <standard_units>  (219) 
nM

>  <record_id>  (219) 
292901

>  <document_chembl_id>  (219) 
CHEMBL1135401

>  <bao_format>  (219) 
BAO_0000357

>  <data_validity_description>  (219) 
None

>  <activity_id>  (219) 
883411

>  <standard_type>  (219) 
IC50

>  <target_chembl_id>  (219) 
CHEMBL202

>  <data_validity_comment>  (219) 
None

>  <published_value>  (219) 
4.6

>  <document_year>  (219) 
2002

>  <target_pref_name>  (219) 
Dihydrofolate reductase

>  <assay_chembl_id>  (219) 
CHEMBL669986

>  <standard_relation>  (219) 
=

>  <assay_description>  (219) 
Antimycobacterial activity against human dihydrofolate reductase (hDHFR)

>  <published_relation>  (219) 
=

>  <standard_value>  (219) 
4.6

>  <qudt_units>  (219) 
http://www.openphacts.org/units/Nanomolar

>  <target_tax_id>  (219) 
9606

>  <bao_label>  (219) 
single protein format

>  <published_units>  (219) 
nM

>  <pchembl_value>  (219) 
8.34

>  <published_type>  (219) 
IC50

>  <activity_comment>  (219) 
None

$$$$

     RDKit          

 32 34  0  0  0  0  0  0  0  0999 V2000
    0.0000    0.0000    0.0000 C   0  0  0  0  0  0  0  0  0  0  0  0
    0.0000    0.0000    0.0000 N   0  0  0  0  0  0  0  0  0  0  0  0
    0.0000    0.0000    0.0000 C   0  0  0  0  0  0  0  0  0  0  0  0
    0.0000    0.0000    0.0000 C   0  0  0  0  0  0  0  0  0  0  0  0
    0.0000    0.0000    0.0000 C   0  0  0  0  0  0  0  0  0  0  0  0
    0.0000    0.0000    0.0000 O   0  0  0  0  0  0  0  0  0  0  0  0
    0.0000    0.0000    0.0000 C   0  0  0  0  0  0  0  0  0  0  0  0
    0.0000    0.0000    0.0000 N   0  0  0  0  0  0  0  0  0  0  0  0
    0.0000    0.0000    0.0000 C   0  0  0  0  0  0  0  0  0  0  0  0
    0.0000    0.0000    0.0000 N   0  0  0  0  0  0  0  0  0  0  0  0
    0.0000    0.0000    0.0000 N   0  0  0  0  0  0  0  0  0  0  0  0
    0.0000    0.0000    0.0000 C   0  0  0  0  0  0  0  0  0  0  0  0
    0.0000    0.0000    0.0000 N   0  0  0  0  0  0  0  0  0  0  0  0
    0.0000    0.0000    0.0000 C   0  0  0  0  0  0  0  0  0  0  0  0
    0.0000    0.0000    0.0000 C   0  0  0  0  0  0  0  0  0  0  0  0
    0.0000    0.0000    0.0000 C   0  0  0  0  0  0  0  0  0  0  0  0
    0.0000    0.0000    0.0000 C   0  0  0  0  0  0  0  0  0  0  0  0
    0.0000    0.0000    0.0000 C   0  0  0  0  0  0  0  0  0  0  0  0
    0.0000    0.0000    0.0000 C   0  0  0  0  0  0  0  0  0  0  0  0
    0.0000    0.0000    0.0000 C   0  0  0  0  0  0  0  0  0  0  0  0
    0.0000    0.0000    0.0000 C   0  0  0  0  0  0  0  0  0  0  0  0
    0.0000    0.0000    0.0000 O   0  0  0  0  0  0  0  0  0  0  0  0
    0.0000    0.0000    0.0000 N   0  0  0  0  0  0  0  0  0  0  0  0
    0.0000    0.0000    0.0000 C   0  0  0  0  0  0  0  0  0  0  0  0
    0.0000    0.0000    0.0000 C   0  0  0  0  0  0  0  0  0  0  0  0
    0.0000    0.0000    0.0000 C   0  0  0  0  0  0  0  0  0  0  0  0
    0.0000    0.0000    0.0000 C   0  0  0  0  0  0  0  0  0  0  0  0
    0.0000    0.0000    0.0000 O   0  0  0  0  0  0  0  0  0  0  0  0
    0.0000    0.0000    0.0000 O   0  0  0  0  0  0  0  0  0  0  0  0
    0.0000    0.0000    0.0000 C   0  0  0  0  0  0  0  0  0  0  0  0
    0.0000    0.0000    0.0000 O   0  0  0  0  0  0  0  0  0  0  0  0
    0.0000    0.0000    0.0000 O   0  0  0  0  0  0  0  0  0  0  0  0
  1  2  1  0
  2  3  1  0
  3  4  1  0
  4  5  2  0
  5  6  1  0
  6  7  1  0
  7  8  2  0
  8  9  1  0
  9 10  1  0
  9 11  2  0
 11 12  1  0
 12 13  1  0
 12 14  2  0
  2 15  1  0
 15 16  2  0
 16 17  1  0
 17 18  2  0
 18 19  1  0
 19 20  2  0
 18 21  1  0
 21 22  2  0
 21 23  1  0
 23 24  1  0
 24 25  1  0
 25 26  1  0
 26 27  1  0
 27 28  2  0
 27 29  1  0
 24 30  1  0
 30 31  2  0
 30 32  1  0
 14  4  1  0
 14  7  1  0
 20 15  1  0
M  END
>  <pIC50>  (220) 
6.66

>  <ChEMBL_ID>  (220) 
CHEMBL104829

>  <document_journal>  (220) 
J. Med. Chem.

>  <bao_endpoint>  (220) 
BAO_0000190

>  <potential_duplicate>  (220) 
False

>  <uo_units>  (220) 
UO_0000065

>  <canonical_smiles>  (220) 
CN(Cc1coc2nc(N)nc(N)c12)c3ccc(cc3)C(=O)N[C@@H](CCC(=O)O)C(=O)O

>  <parent_molecule_chembl_id>  (220) 
CHEMBL104829

>  <assay_type>  (220) 
B

>  <src_id>  (220) 
1

>  <ligand_efficiency>  (220) 
{u'le': u'0.28', u'bei': u'15.05', u'sei': u'3.36', u'lle': u'5.92'}

>  <standard_flag>  (220) 
True

>  <molecule_chembl_id>  (220) 
CHEMBL104829

>  <target_organism>  (220) 
Homo sapiens

>  <standard_units>  (220) 
nM

>  <record_id>  (220) 
198914

>  <document_chembl_id>  (220) 
CHEMBL1133617

>  <bao_format>  (220) 
BAO_0000357

>  <data_validity_description>  (220) 
None

>  <activity_id>  (220) 
884560

>  <standard_type>  (220) 
IC50

>  <target_chembl_id>  (220) 
CHEMBL202

>  <data_validity_comment>  (220) 
None

>  <published_value>  (220) 
0.22

>  <document_year>  (220) 
2000

>  <target_pref_name>  (220) 
Dihydrofolate reductase

>  <assay_chembl_id>  (220) 
CHEMBL668081

>  <standard_relation>  (220) 
=

>  <assay_description>  (220) 
Inhibitory concentration against recombinant human (rh) Dihydrofolate reductase

>  <published_relation>  (220) 
=

>  <standard_value>  (220) 
220

>  <qudt_units>  (220) 
http://www.openphacts.org/units/Nanomolar

>  <target_tax_id>  (220) 
9606

>  <bao_label>  (220) 
single protein format

>  <published_units>  (220) 
uM

>  <pchembl_value>  (220) 
6.66

>  <published_type>  (220) 
IC50

>  <activity_comment>  (220) 
None

$$$$

     RDKit          

 24 26  0  0  0  0  0  0  0  0999 V2000
    0.0000    0.0000    0.0000 C   0  0  0  0  0  0  0  0  0  0  0  0
    0.0000    0.0000    0.0000 C   0  0  0  0  0  0  0  0  0  0  0  0
    0.0000    0.0000    0.0000 C   0  0  0  0  0  0  0  0  0  0  0  0
    0.0000    0.0000    0.0000 C   0  0  0  0  0  0  0  0  0  0  0  0
    0.0000    0.0000    0.0000 C   0  0  0  0  0  0  0  0  0  0  0  0
    0.0000    0.0000    0.0000 C   0  0  0  0  0  0  0  0  0  0  0  0
    0.0000    0.0000    0.0000 N   0  0  0  0  0  0  0  0  0  0  0  0
    0.0000    0.0000    0.0000 C   0  0  0  0  0  0  0  0  0  0  0  0
    0.0000    0.0000    0.0000 C   0  0  0  0  0  0  0  0  0  0  0  0
    0.0000    0.0000    0.0000 C   0  0  0  0  0  0  0  0  0  0  0  0
    0.0000    0.0000    0.0000 N   0  0  0  0  0  0  0  0  0  0  0  0
    0.0000    0.0000    0.0000 C   0  0  0  0  0  0  0  0  0  0  0  0
    0.0000    0.0000    0.0000 N   0  0  0  0  0  0  0  0  0  0  0  0
    0.0000    0.0000    0.0000 C   0  0  0  0  0  0  0  0  0  0  0  0
    0.0000    0.0000    0.0000 N   0  0  0  0  0  0  0  0  0  0  0  0
    0.0000    0.0000    0.0000 N   0  0  0  0  0  0  0  0  0  0  0  0
    0.0000    0.0000    0.0000 C   0  0  0  0  0  0  0  0  0  0  0  0
    0.0000    0.0000    0.0000 N   0  0  0  0  0  0  0  0  0  0  0  0
    0.0000    0.0000    0.0000 C   0  0  0  0  0  0  0  0  0  0  0  0
    0.0000    0.0000    0.0000 C   0  0  0  0  0  0  0  0  0  0  0  0
    0.0000    0.0000    0.0000 C   0  0  0  0  0  0  0  0  0  0  0  0
    0.0000    0.0000    0.0000 C   0  0  0  0  0  0  0  0  0  0  0  0
    0.0000    0.0000    0.0000 Cl  0  0  0  0  0  0  0  0  0  0  0  0
    0.0000    0.0000    0.0000 C   0  0  0  0  0  0  0  0  0  0  0  0
  1  2  1  0
  2  3  2  0
  3  4  1  0
  4  5  1  0
  4  6  2  0
  6  7  1  0
  7  8  1  0
  8  9  1  0
  9 10  2  0
 10 11  1  0
 11 12  2  0
 12 13  1  0
 13 14  2  0
 14 15  1  0
 14 16  1  0
 16 17  2  0
 17 18  1  0
 17 19  1  0
 19 20  2  0
 20 21  1  0
  6 22  1  0
 22 23  1  0
 22 24  2  0
 24  2  1  0
 20  9  1  0
 19 12  1  0
M  END
>  <pIC50>  (221) 
6.07

>  <ChEMBL_ID>  (221) 
CHEMBL147458

>  <document_journal>  (221) 
J. Med. Chem.

>  <bao_endpoint>  (221) 
BAO_0000190

>  <potential_duplicate>  (221) 
False

>  <uo_units>  (221) 
UO_0000065

>  <canonical_smiles>  (221) 
Cc1cc(C)c(NCc2cnc3nc(N)nc(N)c3c2C)c(Cl)c1

>  <parent_molecule_chembl_id>  (221) 
CHEMBL147458

>  <assay_type>  (221) 
B

>  <src_id>  (221) 
1

>  <ligand_efficiency>  (221) 
{u'le': u'0.35', u'bei': u'17.71', u'sei': u'5.91', u'lle': u'2.55'}

>  <standard_flag>  (221) 
True

>  <molecule_chembl_id>  (221) 
CHEMBL147458

>  <target_organism>  (221) 
Homo sapiens

>  <standard_units>  (221) 
nM

>  <record_id>  (221) 
292932

>  <document_chembl_id>  (221) 
CHEMBL1135401

>  <bao_format>  (221) 
BAO_0000357

>  <data_validity_description>  (221) 
None

>  <activity_id>  (221) 
884623

>  <standard_type>  (221) 
IC50

>  <target_chembl_id>  (221) 
CHEMBL202

>  <data_validity_comment>  (221) 
None

>  <published_value>  (221) 
850

>  <document_year>  (221) 
2002

>  <target_pref_name>  (221) 
Dihydrofolate reductase

>  <assay_chembl_id>  (221) 
CHEMBL669986

>  <standard_relation>  (221) 
=

>  <assay_description>  (221) 
Antimycobacterial activity against human dihydrofolate reductase (hDHFR)

>  <published_relation>  (221) 
=

>  <standard_value>  (221) 
850

>  <qudt_units>  (221) 
http://www.openphacts.org/units/Nanomolar

>  <target_tax_id>  (221) 
9606

>  <bao_label>  (221) 
single protein format

>  <published_units>  (221) 
nM

>  <pchembl_value>  (221) 
6.07

>  <published_type>  (221) 
IC50

>  <activity_comment>  (221) 
None

$$$$

     RDKit          

 25 27  0  0  0  0  0  0  0  0999 V2000
    0.0000    0.0000    0.0000 C   0  0  0  0  0  0  0  0  0  0  0  0
    0.0000    0.0000    0.0000 C   0  0  0  0  0  0  0  0  0  0  0  0
    0.0000    0.0000    0.0000 C   0  0  0  0  0  0  0  0  0  0  0  0
    0.0000    0.0000    0.0000 C   0  0  0  0  0  0  0  0  0  0  0  0
    0.0000    0.0000    0.0000 C   0  0  0  0  0  0  0  0  0  0  0  0
    0.0000    0.0000    0.0000 N   0  0  0  0  0  0  0  0  0  0  0  0
    0.0000    0.0000    0.0000 C   0  0  0  0  0  0  0  0  0  0  0  0
    0.0000    0.0000    0.0000 C   0  0  0  0  0  0  0  0  0  0  0  0
    0.0000    0.0000    0.0000 C   0  0  0  0  0  0  0  0  0  0  0  0
    0.0000    0.0000    0.0000 C   0  0  0  0  0  0  0  0  0  0  0  0
    0.0000    0.0000    0.0000 C   0  0  0  0  0  0  0  0  0  0  0  0
    0.0000    0.0000    0.0000 C   0  0  0  0  0  0  0  0  0  0  0  0
    0.0000    0.0000    0.0000 C   0  0  0  0  0  0  0  0  0  0  0  0
    0.0000    0.0000    0.0000 O   0  0  0  0  0  0  0  0  0  0  0  0
    0.0000    0.0000    0.0000 C   0  0  0  0  0  0  0  0  0  0  0  0
    0.0000    0.0000    0.0000 C   0  0  0  0  0  0  0  0  0  0  0  0
    0.0000    0.0000    0.0000 N   0  0  0  0  0  0  0  0  0  0  0  0
    0.0000    0.0000    0.0000 C   0  0  0  0  0  0  0  0  0  0  0  0
    0.0000    0.0000    0.0000 N   0  0  0  0  0  0  0  0  0  0  0  0
    0.0000    0.0000    0.0000 C   0  0  0  0  0  0  0  0  0  0  0  0
    0.0000    0.0000    0.0000 N   0  0  0  0  0  0  0  0  0  0  0  0
    0.0000    0.0000    0.0000 N   0  0  0  0  0  0  0  0  0  0  0  0
    0.0000    0.0000    0.0000 C   0  0  0  0  0  0  0  0  0  0  0  0
    0.0000    0.0000    0.0000 N   0  0  0  0  0  0  0  0  0  0  0  0
    0.0000    0.0000    0.0000 C   0  0  0  0  0  0  0  0  0  0  0  0
  1  2  1  0
  2  3  1  0
  3  4  2  0
  4  5  1  0
  5  6  1  0
  6  7  1  0
  7  8  2  0
  8  9  1  0
  9 10  1  0
  9 11  2  0
 11 12  1  0
 12 13  2  0
 13 14  1  0
 14 15  1  0
  4 16  1  0
 16 17  2  0
 17 18  1  0
 18 19  2  0
 19 20  1  0
 20 21  1  0
 20 22  2  0
 22 23  1  0
 23 24  1  0
 23 25  2  0
 25  3  1  0
 13  7  1  0
 25 18  1  0
M  END
>  <pIC50>  (222) 
6.43

>  <ChEMBL_ID>  (222) 
CHEMBL358381

>  <document_journal>  (222) 
J. Med. Chem.

>  <bao_endpoint>  (222) 
BAO_0000190

>  <potential_duplicate>  (222) 
False

>  <uo_units>  (222) 
UO_0000065

>  <canonical_smiles>  (222) 
CCc1c(CNc2cc(C)ccc2OC)cnc3nc(N)nc(N)c13

>  <parent_molecule_chembl_id>  (222) 
CHEMBL358381

>  <assay_type>  (222) 
B

>  <src_id>  (222) 
1

>  <ligand_efficiency>  (222) 
{u'le': u'0.35', u'bei': u'19.01', u'sei': u'5.74', u'lle': u'3.63'}

>  <standard_flag>  (222) 
True

>  <molecule_chembl_id>  (222) 
CHEMBL358381

>  <target_organism>  (222) 
Homo sapiens

>  <standard_units>  (222) 
nM

>  <record_id>  (222) 
292930

>  <document_chembl_id>  (222) 
CHEMBL1135401

>  <bao_format>  (222) 
BAO_0000357

>  <data_validity_description>  (222) 
None

>  <activity_id>  (222) 
884627

>  <standard_type>  (222) 
IC50

>  <target_chembl_id>  (222) 
CHEMBL202

>  <data_validity_comment>  (222) 
None

>  <published_value>  (222) 
370

>  <document_year>  (222) 
2002

>  <target_pref_name>  (222) 
Dihydrofolate reductase

>  <assay_chembl_id>  (222) 
CHEMBL669986

>  <standard_relation>  (222) 
=

>  <assay_description>  (222) 
Antimycobacterial activity against human dihydrofolate reductase (hDHFR)

>  <published_relation>  (222) 
=

>  <standard_value>  (222) 
370

>  <qudt_units>  (222) 
http://www.openphacts.org/units/Nanomolar

>  <target_tax_id>  (222) 
9606

>  <bao_label>  (222) 
single protein format

>  <published_units>  (222) 
nM

>  <pchembl_value>  (222) 
6.43

>  <published_type>  (222) 
IC50

>  <activity_comment>  (222) 
None

$$$$

     RDKit          

 25 27  0  0  0  0  0  0  0  0999 V2000
    0.0000    0.0000    0.0000 C   0  0  0  0  0  0  0  0  0  0  0  0
    0.0000    0.0000    0.0000 O   0  0  0  0  0  0  0  0  0  0  0  0
    0.0000    0.0000    0.0000 C   0  0  0  0  0  0  0  0  0  0  0  0
    0.0000    0.0000    0.0000 C   0  0  0  0  0  0  0  0  0  0  0  0
    0.0000    0.0000    0.0000 C   0  0  0  0  0  0  0  0  0  0  0  0
    0.0000    0.0000    0.0000 Cl  0  0  0  0  0  0  0  0  0  0  0  0
    0.0000    0.0000    0.0000 C   0  0  0  0  0  0  0  0  0  0  0  0
    0.0000    0.0000    0.0000 C   0  0  0  0  0  0  0  0  0  0  0  0
    0.0000    0.0000    0.0000 C   0  0  0  0  0  0  0  0  0  0  0  0
    0.0000    0.0000    0.0000 C   0  0  0  0  0  0  0  0  0  0  0  0
    0.0000    0.0000    0.0000 N   0  0  0  0  0  0  0  0  0  0  0  0
    0.0000    0.0000    0.0000 C   0  0  0  0  0  0  0  0  0  0  0  0
    0.0000    0.0000    0.0000 C   0  0  0  0  0  0  0  0  0  0  0  0
    0.0000    0.0000    0.0000 C   0  0  0  0  0  0  0  0  0  0  0  0
    0.0000    0.0000    0.0000 N   0  0  0  0  0  0  0  0  0  0  0  0
    0.0000    0.0000    0.0000 C   0  0  0  0  0  0  0  0  0  0  0  0
    0.0000    0.0000    0.0000 N   0  0  0  0  0  0  0  0  0  0  0  0
    0.0000    0.0000    0.0000 C   0  0  0  0  0  0  0  0  0  0  0  0
    0.0000    0.0000    0.0000 N   0  0  0  0  0  0  0  0  0  0  0  0
    0.0000    0.0000    0.0000 N   0  0  0  0  0  0  0  0  0  0  0  0
    0.0000    0.0000    0.0000 C   0  0  0  0  0  0  0  0  0  0  0  0
    0.0000    0.0000    0.0000 N   0  0  0  0  0  0  0  0  0  0  0  0
    0.0000    0.0000    0.0000 C   0  0  0  0  0  0  0  0  0  0  0  0
    0.0000    0.0000    0.0000 C   0  0  0  0  0  0  0  0  0  0  0  0
    0.0000    0.0000    0.0000 C   0  0  0  0  0  0  0  0  0  0  0  0
  1  2  1  0
  2  3  1  0
  3  4  2  0
  4  5  1  0
  5  6  1  0
  5  7  2  0
  7  8  1  0
  7  9  1  0
  9 10  2  0
 10 11  1  0
 11 12  1  0
 12 13  1  0
 13 14  2  0
 14 15  1  0
 15 16  2  0
 16 17  1  0
 17 18  2  0
 18 19  1  0
 18 20  1  0
 20 21  2  0
 21 22  1  0
 21 23  1  0
 23 24  2  0
 24 25  1  0
 10  3  1  0
 24 13  1  0
 23 16  1  0
M  END
>  <pIC50>  (223) 
8.0

>  <ChEMBL_ID>  (223) 
CHEMBL345258

>  <document_journal>  (223) 
J. Med. Chem.

>  <bao_endpoint>  (223) 
BAO_0000190

>  <potential_duplicate>  (223) 
False

>  <uo_units>  (223) 
UO_0000065

>  <canonical_smiles>  (223) 
COc1cc(Cl)c(C)cc1NCc2cnc3nc(N)nc(N)c3c2C

>  <parent_molecule_chembl_id>  (223) 
CHEMBL345258

>  <assay_type>  (223) 
B

>  <src_id>  (223) 
1

>  <ligand_efficiency>  (223) 
{u'le': u'0.44', u'bei': u'22.29', u'sei': u'7.14', u'lle': u'4.99'}

>  <standard_flag>  (223) 
True

>  <molecule_chembl_id>  (223) 
CHEMBL345258

>  <target_organism>  (223) 
Homo sapiens

>  <standard_units>  (223) 
nM

>  <record_id>  (223) 
292921

>  <document_chembl_id>  (223) 
CHEMBL1135401

>  <bao_format>  (223) 
BAO_0000357

>  <data_validity_description>  (223) 
None

>  <activity_id>  (223) 
884631

>  <standard_type>  (223) 
IC50

>  <target_chembl_id>  (223) 
CHEMBL202

>  <data_validity_comment>  (223) 
None

>  <published_value>  (223) 
10

>  <document_year>  (223) 
2002

>  <target_pref_name>  (223) 
Dihydrofolate reductase

>  <assay_chembl_id>  (223) 
CHEMBL669986

>  <standard_relation>  (223) 
=

>  <assay_description>  (223) 
Antimycobacterial activity against human dihydrofolate reductase (hDHFR)

>  <published_relation>  (223) 
=

>  <standard_value>  (223) 
10

>  <qudt_units>  (223) 
http://www.openphacts.org/units/Nanomolar

>  <target_tax_id>  (223) 
9606

>  <bao_label>  (223) 
single protein format

>  <published_units>  (223) 
nM

>  <pchembl_value>  (223) 
8

>  <published_type>  (223) 
IC50

>  <activity_comment>  (223) 
None

$$$$

     RDKit          

 31 33  0  0  0  0  0  0  0  0999 V2000
    0.0000    0.0000    0.0000 N   0  0  0  0  0  0  0  0  0  0  0  0
    0.0000    0.0000    0.0000 C   0  0  0  0  0  0  0  0  0  0  0  0
    0.0000    0.0000    0.0000 N   0  0  0  0  0  0  0  0  0  0  0  0
    0.0000    0.0000    0.0000 C   0  0  0  0  0  0  0  0  0  0  0  0
    0.0000    0.0000    0.0000 N   0  0  0  0  0  0  0  0  0  0  0  0
    0.0000    0.0000    0.0000 C   0  0  0  0  0  0  0  0  0  0  0  0
    0.0000    0.0000    0.0000 C   0  0  0  0  0  0  0  0  0  0  0  0
    0.0000    0.0000    0.0000 C   0  0  0  0  0  0  0  0  0  0  0  0
    0.0000    0.0000    0.0000 C   0  0  0  0  0  0  0  0  0  0  0  0
    0.0000    0.0000    0.0000 C   0  0  0  0  0  0  0  0  0  0  0  0
    0.0000    0.0000    0.0000 C   0  0  0  0  0  0  0  0  0  0  0  0
    0.0000    0.0000    0.0000 C   0  0  0  0  0  0  0  0  0  0  0  0
    0.0000    0.0000    0.0000 C   0  0  0  0  0  0  0  0  0  0  0  0
    0.0000    0.0000    0.0000 C   0  0  0  0  0  0  0  0  0  0  0  0
    0.0000    0.0000    0.0000 C   0  0  0  0  0  0  0  0  0  0  0  0
    0.0000    0.0000    0.0000 C   0  0  0  0  0  0  0  0  0  0  0  0
    0.0000    0.0000    0.0000 O   0  0  0  0  0  0  0  0  0  0  0  0
    0.0000    0.0000    0.0000 N   0  0  0  0  0  0  0  0  0  0  0  0
    0.0000    0.0000    0.0000 C   0  0  0  0  0  0  0  0  0  0  0  0
    0.0000    0.0000    0.0000 C   0  0  0  0  0  0  0  0  0  0  0  0
    0.0000    0.0000    0.0000 C   0  0  0  0  0  0  0  0  0  0  0  0
    0.0000    0.0000    0.0000 C   0  0  0  0  0  0  0  0  0  0  0  0
    0.0000    0.0000    0.0000 O   0  0  0  0  0  0  0  0  0  0  0  0
    0.0000    0.0000    0.0000 O   0  0  0  0  0  0  0  0  0  0  0  0
    0.0000    0.0000    0.0000 C   0  0  0  0  0  0  0  0  0  0  0  0
    0.0000    0.0000    0.0000 O   0  0  0  0  0  0  0  0  0  0  0  0
    0.0000    0.0000    0.0000 O   0  0  0  0  0  0  0  0  0  0  0  0
    0.0000    0.0000    0.0000 C   0  0  0  0  0  0  0  0  0  0  0  0
    0.0000    0.0000    0.0000 O   0  0  0  0  0  0  0  0  0  0  0  0
    0.0000    0.0000    0.0000 C   0  0  0  0  0  0  0  0  0  0  0  0
    0.0000    0.0000    0.0000 N   0  0  0  0  0  0  0  0  0  0  0  0
  1  2  1  0
  2  3  2  0
  3  4  1  0
  4  5  1  0
  4  6  2  0
  6  7  1  0
  7  8  1  0
  8  9  1  0
  9 10  1  0
 10 11  2  0
 11 12  1  0
 12 13  2  0
 13 14  1  0
 14 15  2  0
 13 16  1  0
 16 17  2  0
 16 18  1  0
 18 19  1  0
 19 20  1  0
 20 21  1  0
 21 22  1  0
 22 23  2  0
 22 24  1  0
 19 25  1  0
 25 26  2  0
 25 27  1  0
  7 28  2  0
 28 29  1  0
 29 30  1  0
 30 31  2  0
 31  2  1  0
 30  6  1  0
 15 10  1  0
M  END
>  <pIC50>  (224) 
6.21

>  <ChEMBL_ID>  (224) 
CHEMBL323565

>  <document_journal>  (224) 
J. Med. Chem.

>  <bao_endpoint>  (224) 
BAO_0000190

>  <potential_duplicate>  (224) 
True

>  <uo_units>  (224) 
UO_0000065

>  <canonical_smiles>  (224) 
Nc1nc(N)c2c(CCc3ccc(cc3)C(=O)N[C@@H](CCC(=O)O)C(=O)O)coc2n1

>  <parent_molecule_chembl_id>  (224) 
CHEMBL323565

>  <assay_type>  (224) 
B

>  <src_id>  (224) 
1

>  <ligand_efficiency>  (224) 
{u'le': u'0.26', u'bei': u'14.04', u'sei': u'3.08', u'lle': u'4.57'}

>  <standard_flag>  (224) 
True

>  <molecule_chembl_id>  (224) 
CHEMBL323565

>  <target_organism>  (224) 
Homo sapiens

>  <standard_units>  (224) 
nM

>  <record_id>  (224) 
198915

>  <document_chembl_id>  (224) 
CHEMBL1133617

>  <bao_format>  (224) 
BAO_0000357

>  <data_validity_description>  (224) 
None

>  <activity_id>  (224) 
885917

>  <standard_type>  (224) 
IC50

>  <target_chembl_id>  (224) 
CHEMBL202

>  <data_validity_comment>  (224) 
None

>  <published_value>  (224) 
1

>  <document_year>  (224) 
2000

>  <target_pref_name>  (224) 
Dihydrofolate reductase

>  <assay_chembl_id>  (224) 
CHEMBL668081

>  <standard_relation>  (224) 
=

>  <assay_description>  (224) 
Inhibitory concentration against recombinant human (rh) Dihydrofolate reductase

>  <published_relation>  (224) 
=

>  <standard_value>  (224) 
1000

>  <qudt_units>  (224) 
http://www.openphacts.org/units/Nanomolar

>  <target_tax_id>  (224) 
9606

>  <bao_label>  (224) 
single protein format

>  <published_units>  (224) 
uM

>  <pchembl_value>  (224) 
6

>  <published_type>  (224) 
IC50

>  <activity_comment>  (224) 
None

$$$$

     RDKit          

 26 28  0  0  0  0  0  0  0  0999 V2000
    0.0000    0.0000    0.0000 C   0  0  0  0  0  0  0  0  0  0  0  0
    0.0000    0.0000    0.0000 C   0  0  0  0  0  0  0  0  0  0  0  0
    0.0000    0.0000    0.0000 O   0  0  0  0  0  0  0  0  0  0  0  0
    0.0000    0.0000    0.0000 C   0  0  0  0  0  0  0  0  0  0  0  0
    0.0000    0.0000    0.0000 C   0  0  0  0  0  0  0  0  0  0  0  0
    0.0000    0.0000    0.0000 C   0  0  0  0  0  0  0  0  0  0  0  0
    0.0000    0.0000    0.0000 C   0  0  0  0  0  0  0  0  0  0  0  0
    0.0000    0.0000    0.0000 N   0  0  0  0  0  0  0  0  0  0  0  0
    0.0000    0.0000    0.0000 C   0  0  0  0  0  0  0  0  0  0  0  0
    0.0000    0.0000    0.0000 C   0  0  0  0  0  0  0  0  0  0  0  0
    0.0000    0.0000    0.0000 C   0  0  0  0  0  0  0  0  0  0  0  0
    0.0000    0.0000    0.0000 N   0  0  0  0  0  0  0  0  0  0  0  0
    0.0000    0.0000    0.0000 C   0  0  0  0  0  0  0  0  0  0  0  0
    0.0000    0.0000    0.0000 N   0  0  0  0  0  0  0  0  0  0  0  0
    0.0000    0.0000    0.0000 C   0  0  0  0  0  0  0  0  0  0  0  0
    0.0000    0.0000    0.0000 N   0  0  0  0  0  0  0  0  0  0  0  0
    0.0000    0.0000    0.0000 N   0  0  0  0  0  0  0  0  0  0  0  0
    0.0000    0.0000    0.0000 C   0  0  0  0  0  0  0  0  0  0  0  0
    0.0000    0.0000    0.0000 N   0  0  0  0  0  0  0  0  0  0  0  0
    0.0000    0.0000    0.0000 C   0  0  0  0  0  0  0  0  0  0  0  0
    0.0000    0.0000    0.0000 C   0  0  0  0  0  0  0  0  0  0  0  0
    0.0000    0.0000    0.0000 C   0  0  0  0  0  0  0  0  0  0  0  0
    0.0000    0.0000    0.0000 C   0  0  0  0  0  0  0  0  0  0  0  0
    0.0000    0.0000    0.0000 C   0  0  0  0  0  0  0  0  0  0  0  0
    0.0000    0.0000    0.0000 O   0  0  0  0  0  0  0  0  0  0  0  0
    0.0000    0.0000    0.0000 C   0  0  0  0  0  0  0  0  0  0  0  0
  1  2  1  0
  2  3  1  0
  3  4  1  0
  4  5  2  0
  5  6  1  0
  6  7  2  0
  7  8  1  0
  8  9  1  0
  9 10  1  0
 10 11  2  0
 11 12  1  0
 12 13  2  0
 13 14  1  0
 14 15  2  0
 15 16  1  0
 15 17  1  0
 17 18  2  0
 18 19  1  0
 18 20  1  0
 20 21  2  0
 21 22  1  0
  7 23  1  0
 23 24  2  0
 24 25  1  0
 25 26  1  0
 24  4  1  0
 21 10  1  0
 20 13  1  0
M  END
>  <pIC50>  (225) 
7.75

>  <ChEMBL_ID>  (225) 
CHEMBL358195

>  <document_journal>  (225) 
J. Med. Chem.

>  <bao_endpoint>  (225) 
BAO_0000190

>  <potential_duplicate>  (225) 
False

>  <uo_units>  (225) 
UO_0000065

>  <canonical_smiles>  (225) 
CCOc1ccc(NCc2cnc3nc(N)nc(N)c3c2C)cc1OC

>  <parent_molecule_chembl_id>  (225) 
CHEMBL358195

>  <assay_type>  (225) 
B

>  <src_id>  (225) 
1

>  <ligand_efficiency>  (225) 
{u'le': u'0.41', u'bei': u'21.85', u'sei': u'6.39', u'lle': u'5.55'}

>  <standard_flag>  (225) 
True

>  <molecule_chembl_id>  (225) 
CHEMBL358195

>  <target_organism>  (225) 
Homo sapiens

>  <standard_units>  (225) 
nM

>  <record_id>  (225) 
292936

>  <document_chembl_id>  (225) 
CHEMBL1135401

>  <bao_format>  (225) 
BAO_0000357

>  <data_validity_description>  (225) 
None

>  <activity_id>  (225) 
886029

>  <standard_type>  (225) 
IC50

>  <target_chembl_id>  (225) 
CHEMBL202

>  <data_validity_comment>  (225) 
None

>  <published_value>  (225) 
18

>  <document_year>  (225) 
2002

>  <target_pref_name>  (225) 
Dihydrofolate reductase

>  <assay_chembl_id>  (225) 
CHEMBL669986

>  <standard_relation>  (225) 
=

>  <assay_description>  (225) 
Antimycobacterial activity against human dihydrofolate reductase (hDHFR)

>  <published_relation>  (225) 
=

>  <standard_value>  (225) 
18

>  <qudt_units>  (225) 
http://www.openphacts.org/units/Nanomolar

>  <target_tax_id>  (225) 
9606

>  <bao_label>  (225) 
single protein format

>  <published_units>  (225) 
nM

>  <pchembl_value>  (225) 
7.75

>  <published_type>  (225) 
IC50

>  <activity_comment>  (225) 
None

$$$$

     RDKit          

 27 29  0  0  0  0  0  0  0  0999 V2000
    0.0000    0.0000    0.0000 C   0  0  0  0  0  0  0  0  0  0  0  0
    0.0000    0.0000    0.0000 O   0  0  0  0  0  0  0  0  0  0  0  0
    0.0000    0.0000    0.0000 C   0  0  0  0  0  0  0  0  0  0  0  0
    0.0000    0.0000    0.0000 C   0  0  0  0  0  0  0  0  0  0  0  0
    0.0000    0.0000    0.0000 C   0  0  0  0  0  0  0  0  0  0  0  0
    0.0000    0.0000    0.0000 C   0  0  0  0  0  0  0  0  0  0  0  0
    0.0000    0.0000    0.0000 N   0  0  0  0  0  0  0  0  0  0  0  0
    0.0000    0.0000    0.0000 C   0  0  0  0  0  0  0  0  0  0  0  0
    0.0000    0.0000    0.0000 C   0  0  0  0  0  0  0  0  0  0  0  0
    0.0000    0.0000    0.0000 C   0  0  0  0  0  0  0  0  0  0  0  0
    0.0000    0.0000    0.0000 C   0  0  0  0  0  0  0  0  0  0  0  0
    0.0000    0.0000    0.0000 O   0  0  0  0  0  0  0  0  0  0  0  0
    0.0000    0.0000    0.0000 C   0  0  0  0  0  0  0  0  0  0  0  0
    0.0000    0.0000    0.0000 C   0  0  0  0  0  0  0  0  0  0  0  0
    0.0000    0.0000    0.0000 O   0  0  0  0  0  0  0  0  0  0  0  0
    0.0000    0.0000    0.0000 C   0  0  0  0  0  0  0  0  0  0  0  0
    0.0000    0.0000    0.0000 C   0  0  0  0  0  0  0  0  0  0  0  0
    0.0000    0.0000    0.0000 C   0  0  0  0  0  0  0  0  0  0  0  0
    0.0000    0.0000    0.0000 N   0  0  0  0  0  0  0  0  0  0  0  0
    0.0000    0.0000    0.0000 C   0  0  0  0  0  0  0  0  0  0  0  0
    0.0000    0.0000    0.0000 N   0  0  0  0  0  0  0  0  0  0  0  0
    0.0000    0.0000    0.0000 C   0  0  0  0  0  0  0  0  0  0  0  0
    0.0000    0.0000    0.0000 N   0  0  0  0  0  0  0  0  0  0  0  0
    0.0000    0.0000    0.0000 N   0  0  0  0  0  0  0  0  0  0  0  0
    0.0000    0.0000    0.0000 C   0  0  0  0  0  0  0  0  0  0  0  0
    0.0000    0.0000    0.0000 N   0  0  0  0  0  0  0  0  0  0  0  0
    0.0000    0.0000    0.0000 C   0  0  0  0  0  0  0  0  0  0  0  0
  1  2  1  0
  2  3  1  0
  3  4  1  0
  4  5  2  0
  5  6  1  0
  6  7  1  0
  7  8  1  0
  8  9  2  0
  9 10  1  0
 10 11  2  0
 11 12  1  0
 12 13  1  0
 11 14  1  0
 14 15  1  0
 15 16  1  0
 14 17  2  0
  5 18  1  0
 18 19  2  0
 19 20  1  0
 20 21  2  0
 21 22  1  0
 22 23  1  0
 22 24  2  0
 24 25  1  0
 25 26  1  0
 25 27  2  0
 27  4  1  0
 17  8  1  0
 27 20  1  0
M  END
>  <pIC50>  (226) 
5.22

>  <ChEMBL_ID>  (226) 
CHEMBL151129

>  <document_journal>  (226) 
J. Med. Chem.

>  <bao_endpoint>  (226) 
BAO_0000190

>  <potential_duplicate>  (226) 
False

>  <uo_units>  (226) 
UO_0000065

>  <canonical_smiles>  (226) 
COCc1c(CNc2ccc(OC)c(OC)c2)cnc3nc(N)nc(N)c13

>  <parent_molecule_chembl_id>  (226) 
CHEMBL151129

>  <assay_type>  (226) 
B

>  <src_id>  (226) 
1

>  <ligand_efficiency>  (226) 
{u'le': u'0.26', u'bei': u'14.08', u'sei': u'4', u'lle': u'4.05'}

>  <standard_flag>  (226) 
True

>  <molecule_chembl_id>  (226) 
CHEMBL151129

>  <target_organism>  (226) 
Homo sapiens

>  <standard_units>  (226) 
nM

>  <record_id>  (226) 
292885

>  <document_chembl_id>  (226) 
CHEMBL1135401

>  <bao_format>  (226) 
BAO_0000357

>  <data_validity_description>  (226) 
None

>  <activity_id>  (226) 
886033

>  <standard_type>  (226) 
IC50

>  <target_chembl_id>  (226) 
CHEMBL202

>  <data_validity_comment>  (226) 
None

>  <published_value>  (226) 
6100

>  <document_year>  (226) 
2002

>  <target_pref_name>  (226) 
Dihydrofolate reductase

>  <assay_chembl_id>  (226) 
CHEMBL669986

>  <standard_relation>  (226) 
=

>  <assay_description>  (226) 
Antimycobacterial activity against human dihydrofolate reductase (hDHFR)

>  <published_relation>  (226) 
=

>  <standard_value>  (226) 
6100

>  <qudt_units>  (226) 
http://www.openphacts.org/units/Nanomolar

>  <target_tax_id>  (226) 
9606

>  <bao_label>  (226) 
single protein format

>  <published_units>  (226) 
nM

>  <pchembl_value>  (226) 
5.22

>  <published_type>  (226) 
IC50

>  <activity_comment>  (226) 
None

$$$$

     RDKit          

 26 28  0  0  0  0  0  0  0  0999 V2000
    0.0000    0.0000    0.0000 C   0  0  0  0  0  0  0  0  0  0  0  0
    0.0000    0.0000    0.0000 C   0  0  0  0  0  0  0  0  0  0  0  0
    0.0000    0.0000    0.0000 C   0  0  0  0  0  0  0  0  0  0  0  0
    0.0000    0.0000    0.0000 C   0  0  0  0  0  0  0  0  0  0  0  0
    0.0000    0.0000    0.0000 N   0  0  0  0  0  0  0  0  0  0  0  0
    0.0000    0.0000    0.0000 C   0  0  0  0  0  0  0  0  0  0  0  0
    0.0000    0.0000    0.0000 C   0  0  0  0  0  0  0  0  0  0  0  0
    0.0000    0.0000    0.0000 C   0  0  0  0  0  0  0  0  0  0  0  0
    0.0000    0.0000    0.0000 C   0  0  0  0  0  0  0  0  0  0  0  0
    0.0000    0.0000    0.0000 C   0  0  0  0  0  0  0  0  0  0  0  0
    0.0000    0.0000    0.0000 C   0  0  0  0  0  0  0  0  0  0  0  0
    0.0000    0.0000    0.0000 Br  0  0  0  0  0  0  0  0  0  0  0  0
    0.0000    0.0000    0.0000 C   0  0  0  0  0  0  0  0  0  0  0  0
    0.0000    0.0000    0.0000 F   0  0  0  0  0  0  0  0  0  0  0  0
    0.0000    0.0000    0.0000 F   0  0  0  0  0  0  0  0  0  0  0  0
    0.0000    0.0000    0.0000 F   0  0  0  0  0  0  0  0  0  0  0  0
    0.0000    0.0000    0.0000 C   0  0  0  0  0  0  0  0  0  0  0  0
    0.0000    0.0000    0.0000 N   0  0  0  0  0  0  0  0  0  0  0  0
    0.0000    0.0000    0.0000 C   0  0  0  0  0  0  0  0  0  0  0  0
    0.0000    0.0000    0.0000 N   0  0  0  0  0  0  0  0  0  0  0  0
    0.0000    0.0000    0.0000 C   0  0  0  0  0  0  0  0  0  0  0  0
    0.0000    0.0000    0.0000 N   0  0  0  0  0  0  0  0  0  0  0  0
    0.0000    0.0000    0.0000 N   0  0  0  0  0  0  0  0  0  0  0  0
    0.0000    0.0000    0.0000 C   0  0  0  0  0  0  0  0  0  0  0  0
    0.0000    0.0000    0.0000 N   0  0  0  0  0  0  0  0  0  0  0  0
    0.0000    0.0000    0.0000 C   0  0  0  0  0  0  0  0  0  0  0  0
  1  2  1  0
  2  3  2  0
  3  4  1  0
  4  5  1  0
  5  6  1  0
  6  7  2  0
  7  8  1  0
  8  9  2  0
  9 10  1  0
 10 11  2  0
 11 12  1  0
  8 13  1  0
 13 14  1  0
 13 15  1  0
 13 16  1  0
  3 17  1  0
 17 18  2  0
 18 19  1  0
 19 20  2  0
 20 21  1  0
 21 22  1  0
 21 23  2  0
 23 24  1  0
 24 25  1  0
 24 26  2  0
 26  2  1  0
 11  6  1  0
 26 19  1  0
M  END
>  <pIC50>  (227) 
8.5

>  <ChEMBL_ID>  (227) 
CHEMBL151674

>  <document_journal>  (227) 
J. Med. Chem.

>  <bao_endpoint>  (227) 
BAO_0000190

>  <potential_duplicate>  (227) 
False

>  <uo_units>  (227) 
UO_0000065

>  <canonical_smiles>  (227) 
Cc1c(CNc2cc(ccc2Br)C(F)(F)F)cnc3nc(N)nc(N)c13

>  <parent_molecule_chembl_id>  (227) 
CHEMBL151674

>  <assay_type>  (227) 
B

>  <src_id>  (227) 
1

>  <ligand_efficiency>  (227) 
{u'le': u'0.45', u'bei': u'19.88', u'sei': u'8.27', u'lle': u'4.92'}

>  <standard_flag>  (227) 
True

>  <molecule_chembl_id>  (227) 
CHEMBL151674

>  <target_organism>  (227) 
Homo sapiens

>  <standard_units>  (227) 
nM

>  <record_id>  (227) 
292889

>  <document_chembl_id>  (227) 
CHEMBL1135401

>  <bao_format>  (227) 
BAO_0000357

>  <data_validity_description>  (227) 
None

>  <activity_id>  (227) 
887229

>  <standard_type>  (227) 
IC50

>  <target_chembl_id>  (227) 
CHEMBL202

>  <data_validity_comment>  (227) 
None

>  <published_value>  (227) 
3.2

>  <document_year>  (227) 
2002

>  <target_pref_name>  (227) 
Dihydrofolate reductase

>  <assay_chembl_id>  (227) 
CHEMBL669986

>  <standard_relation>  (227) 
=

>  <assay_description>  (227) 
Antimycobacterial activity against human dihydrofolate reductase (hDHFR)

>  <published_relation>  (227) 
=

>  <standard_value>  (227) 
3.2

>  <qudt_units>  (227) 
http://www.openphacts.org/units/Nanomolar

>  <target_tax_id>  (227) 
9606

>  <bao_label>  (227) 
single protein format

>  <published_units>  (227) 
nM

>  <pchembl_value>  (227) 
8.5

>  <published_type>  (227) 
IC50

>  <activity_comment>  (227) 
None

$$$$

     RDKit          

 25 28  0  0  0  0  0  0  0  0999 V2000
    0.0000    0.0000    0.0000 C   0  0  0  0  0  0  0  0  0  0  0  0
    0.0000    0.0000    0.0000 C   0  0  0  0  0  0  0  0  0  0  0  0
    0.0000    0.0000    0.0000 C   0  0  0  0  0  0  0  0  0  0  0  0
    0.0000    0.0000    0.0000 C   0  0  0  0  0  0  0  0  0  0  0  0
    0.0000    0.0000    0.0000 N   0  0  0  0  0  0  0  0  0  0  0  0
    0.0000    0.0000    0.0000 C   0  0  0  0  0  0  0  0  0  0  0  0
    0.0000    0.0000    0.0000 C   0  0  0  0  0  0  0  0  0  0  0  0
    0.0000    0.0000    0.0000 C   0  0  0  0  0  0  0  0  0  0  0  0
    0.0000    0.0000    0.0000 C   0  0  0  0  0  0  0  0  0  0  0  0
    0.0000    0.0000    0.0000 N   0  0  0  0  0  0  0  0  0  0  0  0
    0.0000    0.0000    0.0000 C   0  0  0  0  0  0  0  0  0  0  0  0
    0.0000    0.0000    0.0000 C   0  0  0  0  0  0  0  0  0  0  0  0
    0.0000    0.0000    0.0000 C   0  0  0  0  0  0  0  0  0  0  0  0
    0.0000    0.0000    0.0000 C   0  0  0  0  0  0  0  0  0  0  0  0
    0.0000    0.0000    0.0000 C   0  0  0  0  0  0  0  0  0  0  0  0
    0.0000    0.0000    0.0000 C   0  0  0  0  0  0  0  0  0  0  0  0
    0.0000    0.0000    0.0000 N   0  0  0  0  0  0  0  0  0  0  0  0
    0.0000    0.0000    0.0000 C   0  0  0  0  0  0  0  0  0  0  0  0
    0.0000    0.0000    0.0000 N   0  0  0  0  0  0  0  0  0  0  0  0
    0.0000    0.0000    0.0000 C   0  0  0  0  0  0  0  0  0  0  0  0
    0.0000    0.0000    0.0000 N   0  0  0  0  0  0  0  0  0  0  0  0
    0.0000    0.0000    0.0000 N   0  0  0  0  0  0  0  0  0  0  0  0
    0.0000    0.0000    0.0000 C   0  0  0  0  0  0  0  0  0  0  0  0
    0.0000    0.0000    0.0000 N   0  0  0  0  0  0  0  0  0  0  0  0
    0.0000    0.0000    0.0000 C   0  0  0  0  0  0  0  0  0  0  0  0
  1  2  1  0
  2  3  2  0
  3  4  1  0
  4  5  1  0
  5  6  1  0
  6  7  2  0
  7  8  1  0
  8  9  2  0
  9 10  1  0
 10 11  2  0
 11 12  1  0
 12 13  2  0
 13 14  1  0
 14 15  2  0
  3 16  1  0
 16 17  2  0
 17 18  1  0
 18 19  2  0
 19 20  1  0
 20 21  1  0
 20 22  2  0
 22 23  1  0
 23 24  1  0
 23 25  2  0
 25  2  1  0
 15  6  1  0
 14  9  1  0
 25 18  1  0
M  END
>  <pIC50>  (228) 
8.15

>  <ChEMBL_ID>  (228) 
CHEMBL147469

>  <document_journal>  (228) 
J. Med. Chem.

>  <bao_endpoint>  (228) 
BAO_0000190

>  <potential_duplicate>  (228) 
False

>  <uo_units>  (228) 
UO_0000065

>  <canonical_smiles>  (228) 
Cc1c(CNc2ccc3ncccc3c2)cnc4nc(N)nc(N)c14

>  <parent_molecule_chembl_id>  (228) 
CHEMBL147469

>  <assay_type>  (228) 
B

>  <src_id>  (228) 
1

>  <ligand_efficiency>  (228) 
{u'le': u'0.45', u'bei': u'24.59', u'sei': u'7.05', u'lle': u'6.09'}

>  <standard_flag>  (228) 
True

>  <molecule_chembl_id>  (228) 
CHEMBL147469

>  <target_organism>  (228) 
Homo sapiens

>  <standard_units>  (228) 
nM

>  <record_id>  (228) 
292913

>  <document_chembl_id>  (228) 
CHEMBL1135401

>  <bao_format>  (228) 
BAO_0000357

>  <data_validity_description>  (228) 
None

>  <activity_id>  (228) 
887233

>  <standard_type>  (228) 
IC50

>  <target_chembl_id>  (228) 
CHEMBL202

>  <data_validity_comment>  (228) 
None

>  <published_value>  (228) 
7.1

>  <document_year>  (228) 
2002

>  <target_pref_name>  (228) 
Dihydrofolate reductase

>  <assay_chembl_id>  (228) 
CHEMBL669986

>  <standard_relation>  (228) 
=

>  <assay_description>  (228) 
Antimycobacterial activity against human dihydrofolate reductase (hDHFR)

>  <published_relation>  (228) 
=

>  <standard_value>  (228) 
7.1

>  <qudt_units>  (228) 
http://www.openphacts.org/units/Nanomolar

>  <target_tax_id>  (228) 
9606

>  <bao_label>  (228) 
single protein format

>  <published_units>  (228) 
nM

>  <pchembl_value>  (228) 
8.15

>  <published_type>  (228) 
IC50

>  <activity_comment>  (228) 
None

$$$$

     RDKit          

 25 27  0  0  0  0  0  0  0  0999 V2000
    0.0000    0.0000    0.0000 C   0  0  0  0  0  0  0  0  0  0  0  0
    0.0000    0.0000    0.0000 O   0  0  0  0  0  0  0  0  0  0  0  0
    0.0000    0.0000    0.0000 C   0  0  0  0  0  0  0  0  0  0  0  0
    0.0000    0.0000    0.0000 C   0  0  0  0  0  0  0  0  0  0  0  0
    0.0000    0.0000    0.0000 C   0  0  0  0  0  0  0  0  0  0  0  0
    0.0000    0.0000    0.0000 C   0  0  0  0  0  0  0  0  0  0  0  0
    0.0000    0.0000    0.0000 C   0  0  0  0  0  0  0  0  0  0  0  0
    0.0000    0.0000    0.0000 C   0  0  0  0  0  0  0  0  0  0  0  0
    0.0000    0.0000    0.0000 C   0  0  0  0  0  0  0  0  0  0  0  0
    0.0000    0.0000    0.0000 N   0  0  0  0  0  0  0  0  0  0  0  0
    0.0000    0.0000    0.0000 C   0  0  0  0  0  0  0  0  0  0  0  0
    0.0000    0.0000    0.0000 N   0  0  0  0  0  0  0  0  0  0  0  0
    0.0000    0.0000    0.0000 C   0  0  0  0  0  0  0  0  0  0  0  0
    0.0000    0.0000    0.0000 N   0  0  0  0  0  0  0  0  0  0  0  0
    0.0000    0.0000    0.0000 N   0  0  0  0  0  0  0  0  0  0  0  0
    0.0000    0.0000    0.0000 C   0  0  0  0  0  0  0  0  0  0  0  0
    0.0000    0.0000    0.0000 N   0  0  0  0  0  0  0  0  0  0  0  0
    0.0000    0.0000    0.0000 C   0  0  0  0  0  0  0  0  0  0  0  0
    0.0000    0.0000    0.0000 C   0  0  0  0  0  0  0  0  0  0  0  0
    0.0000    0.0000    0.0000 C   0  0  0  0  0  0  0  0  0  0  0  0
    0.0000    0.0000    0.0000 C   0  0  0  0  0  0  0  0  0  0  0  0
    0.0000    0.0000    0.0000 C   0  0  0  0  0  0  0  0  0  0  0  0
    0.0000    0.0000    0.0000 O   0  0  0  0  0  0  0  0  0  0  0  0
    0.0000    0.0000    0.0000 C   0  0  0  0  0  0  0  0  0  0  0  0
    0.0000    0.0000    0.0000 C   0  0  0  0  0  0  0  0  0  0  0  0
  1  2  1  0
  2  3  1  0
  3  4  2  0
  4  5  1  0
  5  6  1  0
  6  7  1  0
  7  8  1  0
  8  9  2  0
  9 10  1  0
 10 11  2  0
 11 12  1  0
 12 13  2  0
 13 14  1  0
 13 15  1  0
 15 16  2  0
 16 17  1  0
 16 18  1  0
 18 19  2  0
 19 20  1  0
  5 21  2  0
 21 22  1  0
 22 23  1  0
 23 24  1  0
 22 25  2  0
 25  3  1  0
 19  8  1  0
 18 11  1  0
M  END
>  <pIC50>  (229) 
6.0

>  <ChEMBL_ID>  (229) 
CHEMBL151543

>  <document_journal>  (229) 
J. Med. Chem.

>  <bao_endpoint>  (229) 
BAO_0000190

>  <potential_duplicate>  (229) 
False

>  <uo_units>  (229) 
UO_0000065

>  <canonical_smiles>  (229) 
COc1cc(CCc2cnc3nc(N)nc(N)c3c2C)cc(OC)c1

>  <parent_molecule_chembl_id>  (229) 
CHEMBL151543

>  <assay_type>  (229) 
B

>  <src_id>  (229) 
1

>  <ligand_efficiency>  (229) 
{u'le': u'0.33', u'bei': u'17.69', u'sei': u'5.5', u'lle': u'3.12'}

>  <standard_flag>  (229) 
True

>  <molecule_chembl_id>  (229) 
CHEMBL151543

>  <target_organism>  (229) 
Homo sapiens

>  <standard_units>  (229) 
nM

>  <record_id>  (229) 
292874

>  <document_chembl_id>  (229) 
CHEMBL1135401

>  <bao_format>  (229) 
BAO_0000357

>  <data_validity_description>  (229) 
None

>  <activity_id>  (229) 
887254

>  <standard_type>  (229) 
IC50

>  <target_chembl_id>  (229) 
CHEMBL202

>  <data_validity_comment>  (229) 
None

>  <published_value>  (229) 
990

>  <document_year>  (229) 
2002

>  <target_pref_name>  (229) 
Dihydrofolate reductase

>  <assay_chembl_id>  (229) 
CHEMBL669986

>  <standard_relation>  (229) 
=

>  <assay_description>  (229) 
Antimycobacterial activity against human dihydrofolate reductase (hDHFR)

>  <published_relation>  (229) 
=

>  <standard_value>  (229) 
990

>  <qudt_units>  (229) 
http://www.openphacts.org/units/Nanomolar

>  <target_tax_id>  (229) 
9606

>  <bao_label>  (229) 
single protein format

>  <published_units>  (229) 
nM

>  <pchembl_value>  (229) 
6

>  <published_type>  (229) 
IC50

>  <activity_comment>  (229) 
None

$$$$

     RDKit          

 32 34  0  0  0  0  0  0  0  0999 V2000
    0.0000    0.0000    0.0000 N   0  0  0  0  0  0  0  0  0  0  0  0
    0.0000    0.0000    0.0000 C   0  0  0  0  0  0  0  0  0  0  0  0
    0.0000    0.0000    0.0000 N   0  0  0  0  0  0  0  0  0  0  0  0
    0.0000    0.0000    0.0000 C   0  0  0  0  0  0  0  0  0  0  0  0
    0.0000    0.0000    0.0000 N   0  0  0  0  0  0  0  0  0  0  0  0
    0.0000    0.0000    0.0000 C   0  0  0  0  0  0  0  0  0  0  0  0
    0.0000    0.0000    0.0000 C   0  0  0  0  0  0  0  0  0  0  0  0
    0.0000    0.0000    0.0000 C   0  0  0  0  0  0  0  0  0  0  0  0
    0.0000    0.0000    0.0000 N   0  0  0  0  0  0  0  0  0  0  0  0
    0.0000    0.0000    0.0000 C   0  0  0  0  0  0  0  0  0  0  0  0
    0.0000    0.0000    0.0000 C   0  0  0  0  0  0  0  0  0  0  0  0
    0.0000    0.0000    0.0000 C   0  0  0  0  0  0  0  0  0  0  0  0
    0.0000    0.0000    0.0000 C   0  0  0  0  0  0  0  0  0  0  0  0
    0.0000    0.0000    0.0000 C   0  0  0  0  0  0  0  0  0  0  0  0
    0.0000    0.0000    0.0000 C   0  0  0  0  0  0  0  0  0  0  0  0
    0.0000    0.0000    0.0000 C   0  0  0  0  0  0  0  0  0  0  0  0
    0.0000    0.0000    0.0000 C   0  0  0  0  0  0  0  0  0  0  0  0
    0.0000    0.0000    0.0000 O   0  0  0  0  0  0  0  0  0  0  0  0
    0.0000    0.0000    0.0000 N   0  0  0  0  0  0  0  0  0  0  0  0
    0.0000    0.0000    0.0000 C   0  0  0  0  0  0  0  0  0  0  0  0
    0.0000    0.0000    0.0000 C   0  0  0  0  0  0  0  0  0  0  0  0
    0.0000    0.0000    0.0000 C   0  0  0  0  0  0  0  0  0  0  0  0
    0.0000    0.0000    0.0000 C   0  0  0  0  0  0  0  0  0  0  0  0
    0.0000    0.0000    0.0000 O   0  0  0  0  0  0  0  0  0  0  0  0
    0.0000    0.0000    0.0000 O   0  0  0  0  0  0  0  0  0  0  0  0
    0.0000    0.0000    0.0000 C   0  0  0  0  0  0  0  0  0  0  0  0
    0.0000    0.0000    0.0000 O   0  0  0  0  0  0  0  0  0  0  0  0
    0.0000    0.0000    0.0000 O   0  0  0  0  0  0  0  0  0  0  0  0
    0.0000    0.0000    0.0000 C   0  0  0  0  0  0  0  0  0  0  0  0
    0.0000    0.0000    0.0000 O   0  0  0  0  0  0  0  0  0  0  0  0
    0.0000    0.0000    0.0000 C   0  0  0  0  0  0  0  0  0  0  0  0
    0.0000    0.0000    0.0000 N   0  0  0  0  0  0  0  0  0  0  0  0
  1  2  1  0
  2  3  2  0
  3  4  1  0
  4  5  1  0
  4  6  2  0
  6  7  1  0
  7  8  1  0
  8  9  1  0
  9 10  1  0
 10 11  1  0
 11 12  2  0
 12 13  1  0
 13 14  2  0
 14 15  1  0
 15 16  2  0
 14 17  1  0
 17 18  2  0
 17 19  1  0
 19 20  1  0
 20 21  1  0
 21 22  1  0
 22 23  1  0
 23 24  2  0
 23 25  1  0
 20 26  1  0
 26 27  2  0
 26 28  1  0
  7 29  2  0
 29 30  1  0
 30 31  1  0
 31 32  2  0
 32  2  1  0
 31  6  1  0
 16 11  1  0
M  END
>  <pIC50>  (230) 
4.76

>  <ChEMBL_ID>  (230) 
CHEMBL106699

>  <document_journal>  (230) 
J. Med. Chem.

>  <bao_endpoint>  (230) 
BAO_0000190

>  <potential_duplicate>  (230) 
False

>  <uo_units>  (230) 
UO_0000065

>  <canonical_smiles>  (230) 
Nc1nc(N)c2c(CNCc3ccc(cc3)C(=O)N[C@@H](CCC(=O)O)C(=O)O)coc2n1

>  <parent_molecule_chembl_id>  (230) 
CHEMBL106699

>  <assay_type>  (230) 
B

>  <src_id>  (230) 
1

>  <ligand_efficiency>  (230) 
{u'le': u'0.21', u'bei': u'11.3', u'sei': u'2.42', u'lle': u'7.59'}

>  <standard_flag>  (230) 
True

>  <molecule_chembl_id>  (230) 
CHEMBL106699

>  <target_organism>  (230) 
Homo sapiens

>  <standard_units>  (230) 
nM

>  <record_id>  (230) 
198912

>  <document_chembl_id>  (230) 
CHEMBL1133617

>  <bao_format>  (230) 
BAO_0000357

>  <data_validity_description>  (230) 
None

>  <activity_id>  (230) 
889499

>  <standard_type>  (230) 
IC50

>  <target_chembl_id>  (230) 
CHEMBL202

>  <data_validity_comment>  (230) 
None

>  <published_value>  (230) 
0.00001

>  <document_year>  (230) 
2000

>  <target_pref_name>  (230) 
Dihydrofolate reductase

>  <assay_chembl_id>  (230) 
CHEMBL666225

>  <standard_relation>  (230) 
=

>  <assay_description>  (230) 
Inhibitory activity against Dihydrofolate reductase

>  <published_relation>  (230) 
=

>  <standard_value>  (230) 
10000

>  <qudt_units>  (230) 
http://www.openphacts.org/units/Nanomolar

>  <target_tax_id>  (230) 
9606

>  <bao_label>  (230) 
single protein format

>  <published_units>  (230) 
M

>  <pchembl_value>  (230) 
5

>  <published_type>  (230) 
IC50

>  <activity_comment>  (230) 
None

$$$$

     RDKit          

 23 25  0  0  0  0  0  0  0  0999 V2000
    0.0000    0.0000    0.0000 C   0  0  0  0  0  0  0  0  0  0  0  0
    0.0000    0.0000    0.0000 C   0  0  0  0  0  0  0  0  0  0  0  0
    0.0000    0.0000    0.0000 C   0  0  0  0  0  0  0  0  0  0  0  0
    0.0000    0.0000    0.0000 C   0  0  0  0  0  0  0  0  0  0  0  0
    0.0000    0.0000    0.0000 N   0  0  0  0  0  0  0  0  0  0  0  0
    0.0000    0.0000    0.0000 C   0  0  0  0  0  0  0  0  0  0  0  0
    0.0000    0.0000    0.0000 C   0  0  0  0  0  0  0  0  0  0  0  0
    0.0000    0.0000    0.0000 C   0  0  0  0  0  0  0  0  0  0  0  0
    0.0000    0.0000    0.0000 Cl  0  0  0  0  0  0  0  0  0  0  0  0
    0.0000    0.0000    0.0000 C   0  0  0  0  0  0  0  0  0  0  0  0
    0.0000    0.0000    0.0000 C   0  0  0  0  0  0  0  0  0  0  0  0
    0.0000    0.0000    0.0000 C   0  0  0  0  0  0  0  0  0  0  0  0
    0.0000    0.0000    0.0000 Cl  0  0  0  0  0  0  0  0  0  0  0  0
    0.0000    0.0000    0.0000 C   0  0  0  0  0  0  0  0  0  0  0  0
    0.0000    0.0000    0.0000 N   0  0  0  0  0  0  0  0  0  0  0  0
    0.0000    0.0000    0.0000 C   0  0  0  0  0  0  0  0  0  0  0  0
    0.0000    0.0000    0.0000 N   0  0  0  0  0  0  0  0  0  0  0  0
    0.0000    0.0000    0.0000 C   0  0  0  0  0  0  0  0  0  0  0  0
    0.0000    0.0000    0.0000 N   0  0  0  0  0  0  0  0  0  0  0  0
    0.0000    0.0000    0.0000 N   0  0  0  0  0  0  0  0  0  0  0  0
    0.0000    0.0000    0.0000 C   0  0  0  0  0  0  0  0  0  0  0  0
    0.0000    0.0000    0.0000 N   0  0  0  0  0  0  0  0  0  0  0  0
    0.0000    0.0000    0.0000 C   0  0  0  0  0  0  0  0  0  0  0  0
  1  2  1  0
  2  3  2  0
  3  4  1  0
  4  5  1  0
  5  6  1  0
  6  7  2  0
  7  8  1  0
  8  9  1  0
  8 10  2  0
 10 11  1  0
 11 12  2  0
 12 13  1  0
  3 14  1  0
 14 15  2  0
 15 16  1  0
 16 17  2  0
 17 18  1  0
 18 19  1  0
 18 20  2  0
 20 21  1  0
 21 22  1  0
 21 23  2  0
 23  2  1  0
 12  6  1  0
 23 16  1  0
M  END
>  <pIC50>  (231) 
8.1

>  <ChEMBL_ID>  (231) 
CHEMBL147257

>  <document_journal>  (231) 
J. Med. Chem.

>  <bao_endpoint>  (231) 
BAO_0000190

>  <potential_duplicate>  (231) 
False

>  <uo_units>  (231) 
UO_0000065

>  <canonical_smiles>  (231) 
Cc1c(CNc2cc(Cl)ccc2Cl)cnc3nc(N)nc(N)c13

>  <parent_molecule_chembl_id>  (231) 
CHEMBL147257

>  <assay_type>  (231) 
B

>  <src_id>  (231) 
1

>  <ligand_efficiency>  (231) 
{u'le': u'0.48', u'bei': u'23.19', u'sei': u'7.88', u'lle': u'4.89'}

>  <standard_flag>  (231) 
True

>  <molecule_chembl_id>  (231) 
CHEMBL147257

>  <target_organism>  (231) 
Homo sapiens

>  <standard_units>  (231) 
nM

>  <record_id>  (231) 
292919

>  <document_chembl_id>  (231) 
CHEMBL1135401

>  <bao_format>  (231) 
BAO_0000357

>  <data_validity_description>  (231) 
None

>  <activity_id>  (231) 
889557

>  <standard_type>  (231) 
IC50

>  <target_chembl_id>  (231) 
CHEMBL202

>  <data_validity_comment>  (231) 
None

>  <published_value>  (231) 
8

>  <document_year>  (231) 
2002

>  <target_pref_name>  (231) 
Dihydrofolate reductase

>  <assay_chembl_id>  (231) 
CHEMBL669986

>  <standard_relation>  (231) 
=

>  <assay_description>  (231) 
Antimycobacterial activity against human dihydrofolate reductase (hDHFR)

>  <published_relation>  (231) 
=

>  <standard_value>  (231) 
8

>  <qudt_units>  (231) 
http://www.openphacts.org/units/Nanomolar

>  <target_tax_id>  (231) 
9606

>  <bao_label>  (231) 
single protein format

>  <published_units>  (231) 
nM

>  <pchembl_value>  (231) 
8.1

>  <published_type>  (231) 
IC50

>  <activity_comment>  (231) 
None

$$$$

     RDKit          

 34 36  0  0  0  0  0  0  0  0999 V2000
    0.0000    0.0000    0.0000 O   0  0  0  0  0  0  0  0  0  0  0  0
    0.0000    0.0000    0.0000 C   0  0  0  0  0  0  0  0  0  0  0  0
    0.0000    0.0000    0.0000 N   0  0  0  0  0  0  0  0  0  0  0  0
    0.0000    0.0000    0.0000 C   0  0  0  0  0  0  0  0  0  0  0  0
    0.0000    0.0000    0.0000 C   0  0  0  0  0  0  0  0  0  0  0  0
    0.0000    0.0000    0.0000 C   0  0  0  0  0  0  0  0  0  0  0  0
    0.0000    0.0000    0.0000 C   0  0  0  0  0  0  0  0  0  0  0  0
    0.0000    0.0000    0.0000 C   0  0  0  0  0  0  0  0  0  0  0  0
    0.0000    0.0000    0.0000 N   0  0  0  0  0  0  0  0  0  0  0  0
    0.0000    0.0000    0.0000 C   0  0  0  0  0  0  0  0  0  0  0  0
    0.0000    0.0000    0.0000 C   0  0  0  0  0  0  0  0  0  0  0  0
    0.0000    0.0000    0.0000 C   0  0  0  0  0  0  0  0  0  0  0  0
    0.0000    0.0000    0.0000 N   0  0  0  0  0  0  0  0  0  0  0  0
    0.0000    0.0000    0.0000 C   0  0  0  0  0  0  0  0  0  0  0  0
    0.0000    0.0000    0.0000 C   0  0  0  0  0  0  0  0  0  0  0  0
    0.0000    0.0000    0.0000 C   0  0  0  0  0  0  0  0  0  0  0  0
    0.0000    0.0000    0.0000 C   0  0  0  0  0  0  0  0  0  0  0  0
    0.0000    0.0000    0.0000 C   0  0  0  0  0  0  0  0  0  0  0  0
    0.0000    0.0000    0.0000 C   0  0  0  0  0  0  0  0  0  0  0  0
    0.0000    0.0000    0.0000 C   0  0  0  0  0  0  0  0  0  0  0  0
    0.0000    0.0000    0.0000 C   0  0  0  0  0  0  0  0  0  0  0  0
    0.0000    0.0000    0.0000 C   0  0  0  0  0  0  0  0  0  0  0  0
    0.0000    0.0000    0.0000 C   0  0  0  0  0  0  0  0  0  0  0  0
    0.0000    0.0000    0.0000 N   0  0  0  0  0  0  0  0  0  0  0  0
    0.0000    0.0000    0.0000 O   0  0  0  0  0  0  0  0  0  0  0  0
    0.0000    0.0000    0.0000 C   0  0  0  0  0  0  0  0  0  0  0  0
    0.0000    0.0000    0.0000 C   0  0  0  0  0  0  0  0  0  0  0  0
    0.0000    0.0000    0.0000 C   0  0  0  0  0  0  0  0  0  0  0  0
    0.0000    0.0000    0.0000 C   0  0  0  0  0  0  0  0  0  0  0  0
    0.0000    0.0000    0.0000 O   0  0  0  0  0  0  0  0  0  0  0  0
    0.0000    0.0000    0.0000 O   0  0  0  0  0  0  0  0  0  0  0  0
    0.0000    0.0000    0.0000 C   0  0  0  0  0  0  0  0  0  0  0  0
    0.0000    0.0000    0.0000 O   0  0  0  0  0  0  0  0  0  0  0  0
    0.0000    0.0000    0.0000 O   0  0  0  0  0  0  0  0  0  0  0  0
  1  2  2  0
  2  3  1  0
  2  4  1  0
  4  5  2  0
  4  6  1  0
  5  7  1  0
  8  6  2  0
  6  9  1  0
 10  7  1  0
  7 11  2  0
 11  8  1  0
  9 12  2  0
 13 10  1  0
 12  3  1  0
 14 13  1  0
 13 15  1  0
 16 14  2  0
 14 17  1  0
 15 18  1  0
 19 16  1  0
 17 20  2  0
 18 21  3  0
 22 19  2  0
 20 22  1  0
 23 22  1  0
 24 23  1  0
 23 25  2  0
 26 24  1  0
 27 26  1  0
 26 28  1  0
 29 27  1  0
 28 30  2  0
 28 31  1  0
 32 29  1  0
 33 32  1  0
 32 34  2  0
M  END
>  <pIC50>  (232) 
5.16

>  <ChEMBL_ID>  (232) 
CHEMBL171480

>  <document_journal>  (232) 
J. Med. Chem.

>  <bao_endpoint>  (232) 
BAO_0000190

>  <potential_duplicate>  (232) 
False

>  <uo_units>  (232) 
UO_0000065

>  <canonical_smiles>  (232) 
OC(=O)CCC(NC(=O)c1ccc(cc1)N(CC#C)Cc2ccc3ncnc(O)c3c2)C(=O)O

>  <parent_molecule_chembl_id>  (232) 
CHEMBL171480

>  <assay_type>  (232) 
B

>  <src_id>  (232) 
1

>  <ligand_efficiency>  (232) 
{u'le': u'0.21', u'bei': u'11.15', u'sei': u'3.37', u'lle': u'1.65'}

>  <standard_flag>  (232) 
True

>  <molecule_chembl_id>  (232) 
CHEMBL171480

>  <target_organism>  (232) 
Homo sapiens

>  <standard_units>  (232) 
nM

>  <record_id>  (232) 
333542

>  <document_chembl_id>  (232) 
CHEMBL1124448

>  <bao_format>  (232) 
BAO_0000357

>  <data_validity_description>  (232) 
None

>  <activity_id>  (232) 
889666

>  <standard_type>  (232) 
IC50

>  <target_chembl_id>  (232) 
CHEMBL202

>  <data_validity_comment>  (232) 
None

>  <published_value>  (232) 
7

>  <document_year>  (232) 
1989

>  <target_pref_name>  (232) 
Dihydrofolate reductase

>  <assay_chembl_id>  (232) 
CHEMBL669444

>  <standard_relation>  (232) 
=

>  <assay_description>  (232) 
Inhibition of human WIL2/dihydrofolate reductase activity

>  <published_relation>  (232) 
=

>  <standard_value>  (232) 
7000

>  <qudt_units>  (232) 
http://www.openphacts.org/units/Nanomolar

>  <target_tax_id>  (232) 
9606

>  <bao_label>  (232) 
single protein format

>  <published_units>  (232) 
uM

>  <pchembl_value>  (232) 
5.16

>  <published_type>  (232) 
I50

>  <activity_comment>  (232) 
None

$$$$

     RDKit          

 28 30  0  0  0  0  0  0  0  0999 V2000
    0.0000    0.0000    0.0000 C   0  0  0  0  0  0  0  0  0  0  0  0
    0.0000    0.0000    0.0000 C   0  0  0  0  0  0  0  0  0  0  0  0
    0.0000    0.0000    0.0000 O   0  0  0  0  0  0  0  0  0  0  0  0
    0.0000    0.0000    0.0000 C   0  0  0  0  0  0  0  0  0  0  0  0
    0.0000    0.0000    0.0000 C   0  0  0  0  0  0  0  0  0  0  0  0
    0.0000    0.0000    0.0000 C   0  0  0  0  0  0  0  0  0  0  0  0
    0.0000    0.0000    0.0000 C   0  0  0  0  0  0  0  0  0  0  0  0
    0.0000    0.0000    0.0000 O   0  0  0  0  0  0  0  0  0  0  0  0
    0.0000    0.0000    0.0000 C   0  0  0  0  0  0  0  0  0  0  0  0
    0.0000    0.0000    0.0000 C   0  0  0  0  0  0  0  0  0  0  0  0
    0.0000    0.0000    0.0000 C   0  0  0  0  0  0  0  0  0  0  0  0
    0.0000    0.0000    0.0000 C   0  0  0  0  0  0  0  0  0  0  0  0
    0.0000    0.0000    0.0000 N   0  0  0  0  0  0  0  0  0  0  0  0
    0.0000    0.0000    0.0000 C   0  0  0  0  0  0  0  0  0  0  0  0
    0.0000    0.0000    0.0000 C   0  0  0  0  0  0  0  0  0  0  0  0
    0.0000    0.0000    0.0000 C   0  0  0  0  0  0  0  0  0  0  0  0
    0.0000    0.0000    0.0000 C   0  0  0  0  0  0  0  0  0  0  0  0
    0.0000    0.0000    0.0000 N   0  0  0  0  0  0  0  0  0  0  0  0
    0.0000    0.0000    0.0000 C   0  0  0  0  0  0  0  0  0  0  0  0
    0.0000    0.0000    0.0000 N   0  0  0  0  0  0  0  0  0  0  0  0
    0.0000    0.0000    0.0000 C   0  0  0  0  0  0  0  0  0  0  0  0
    0.0000    0.0000    0.0000 N   0  0  0  0  0  0  0  0  0  0  0  0
    0.0000    0.0000    0.0000 N   0  0  0  0  0  0  0  0  0  0  0  0
    0.0000    0.0000    0.0000 C   0  0  0  0  0  0  0  0  0  0  0  0
    0.0000    0.0000    0.0000 N   0  0  0  0  0  0  0  0  0  0  0  0
    0.0000    0.0000    0.0000 C   0  0  0  0  0  0  0  0  0  0  0  0
    0.0000    0.0000    0.0000 C   0  0  0  0  0  0  0  0  0  0  0  0
    0.0000    0.0000    0.0000 C   0  0  0  0  0  0  0  0  0  0  0  0
  1  2  1  0
  2  3  1  0
  3  4  1  0
  4  5  2  0
  5  6  1  0
  6  7  2  0
  7  8  1  0
  8  9  1  0
  9 10  1  0
  7 11  1  0
 11 12  2  0
 11 13  1  0
 13 14  1  0
 13 15  1  0
 15 16  1  0
 16 17  2  0
 17 18  1  0
 18 19  2  0
 19 20  1  0
 20 21  2  0
 21 22  1  0
 21 23  1  0
 23 24  2  0
 24 25  1  0
 24 26  1  0
 26 27  2  0
 27 28  1  0
 12  4  1  0
 27 16  1  0
 26 19  1  0
M  END
>  <pIC50>  (233) 
6.0

>  <ChEMBL_ID>  (233) 
CHEMBL23844

>  <document_journal>  (233) 
J. Med. Chem.

>  <bao_endpoint>  (233) 
BAO_0000190

>  <potential_duplicate>  (233) 
False

>  <uo_units>  (233) 
UO_0000065

>  <canonical_smiles>  (233) 
CCOc1ccc(OCC)c(c1)N(C)Cc2cnc3nc(N)nc(N)c3c2C

>  <parent_molecule_chembl_id>  (233) 
CHEMBL23844

>  <assay_type>  (233) 
B

>  <src_id>  (233) 
1

>  <ligand_efficiency>  (233) 
{u'le': u'0.29', u'bei': u'15.69', u'sei': u'5.34', u'lle': u'3.1'}

>  <standard_flag>  (233) 
True

>  <molecule_chembl_id>  (233) 
CHEMBL23844

>  <target_organism>  (233) 
Homo sapiens

>  <standard_units>  (233) 
nM

>  <record_id>  (233) 
292868

>  <document_chembl_id>  (233) 
CHEMBL1135401

>  <bao_format>  (233) 
BAO_0000357

>  <data_validity_description>  (233) 
None

>  <activity_id>  (233) 
892018

>  <standard_type>  (233) 
IC50

>  <target_chembl_id>  (233) 
CHEMBL202

>  <data_validity_comment>  (233) 
None

>  <published_value>  (233) 
1000

>  <document_year>  (233) 
2002

>  <target_pref_name>  (233) 
Dihydrofolate reductase

>  <assay_chembl_id>  (233) 
CHEMBL669986

>  <standard_relation>  (233) 
=

>  <assay_description>  (233) 
Antimycobacterial activity against human dihydrofolate reductase (hDHFR)

>  <published_relation>  (233) 
=

>  <standard_value>  (233) 
1000

>  <qudt_units>  (233) 
http://www.openphacts.org/units/Nanomolar

>  <target_tax_id>  (233) 
9606

>  <bao_label>  (233) 
single protein format

>  <published_units>  (233) 
nM

>  <pchembl_value>  (233) 
6

>  <published_type>  (233) 
IC50

>  <activity_comment>  (233) 
None

$$$$

     RDKit          

 23 25  0  0  0  0  0  0  0  0999 V2000
    0.0000    0.0000    0.0000 C   0  0  0  0  0  0  0  0  0  0  0  0
    0.0000    0.0000    0.0000 C   0  0  0  0  0  0  0  0  0  0  0  0
    0.0000    0.0000    0.0000 C   0  0  0  0  0  0  0  0  0  0  0  0
    0.0000    0.0000    0.0000 C   0  0  0  0  0  0  0  0  0  0  0  0
    0.0000    0.0000    0.0000 C   0  0  0  0  0  0  0  0  0  0  0  0
    0.0000    0.0000    0.0000 F   0  0  0  0  0  0  0  0  0  0  0  0
    0.0000    0.0000    0.0000 C   0  0  0  0  0  0  0  0  0  0  0  0
    0.0000    0.0000    0.0000 N   0  0  0  0  0  0  0  0  0  0  0  0
    0.0000    0.0000    0.0000 C   0  0  0  0  0  0  0  0  0  0  0  0
    0.0000    0.0000    0.0000 C   0  0  0  0  0  0  0  0  0  0  0  0
    0.0000    0.0000    0.0000 C   0  0  0  0  0  0  0  0  0  0  0  0
    0.0000    0.0000    0.0000 N   0  0  0  0  0  0  0  0  0  0  0  0
    0.0000    0.0000    0.0000 C   0  0  0  0  0  0  0  0  0  0  0  0
    0.0000    0.0000    0.0000 N   0  0  0  0  0  0  0  0  0  0  0  0
    0.0000    0.0000    0.0000 C   0  0  0  0  0  0  0  0  0  0  0  0
    0.0000    0.0000    0.0000 N   0  0  0  0  0  0  0  0  0  0  0  0
    0.0000    0.0000    0.0000 N   0  0  0  0  0  0  0  0  0  0  0  0
    0.0000    0.0000    0.0000 C   0  0  0  0  0  0  0  0  0  0  0  0
    0.0000    0.0000    0.0000 N   0  0  0  0  0  0  0  0  0  0  0  0
    0.0000    0.0000    0.0000 C   0  0  0  0  0  0  0  0  0  0  0  0
    0.0000    0.0000    0.0000 C   0  0  0  0  0  0  0  0  0  0  0  0
    0.0000    0.0000    0.0000 C   0  0  0  0  0  0  0  0  0  0  0  0
    0.0000    0.0000    0.0000 C   0  0  0  0  0  0  0  0  0  0  0  0
  1  2  1  0
  2  3  2  0
  3  4  1  0
  4  5  2  0
  5  6  1  0
  5  7  1  0
  7  8  1  0
  8  9  1  0
  9 10  1  0
 10 11  2  0
 11 12  1  0
 12 13  2  0
 13 14  1  0
 14 15  2  0
 15 16  1  0
 15 17  1  0
 17 18  2  0
 18 19  1  0
 18 20  1  0
 20 21  2  0
 21 22  1  0
  7 23  2  0
 23  2  1  0
 21 10  1  0
 20 13  1  0
M  END
>  <pIC50>  (234) 
6.6

>  <ChEMBL_ID>  (234) 
CHEMBL348209

>  <document_journal>  (234) 
J. Med. Chem.

>  <bao_endpoint>  (234) 
BAO_0000190

>  <potential_duplicate>  (234) 
False

>  <uo_units>  (234) 
UO_0000065

>  <canonical_smiles>  (234) 
Cc1ccc(F)c(NCc2cnc3nc(N)nc(N)c3c2C)c1

>  <parent_molecule_chembl_id>  (234) 
CHEMBL348209

>  <assay_type>  (234) 
B

>  <src_id>  (234) 
1

>  <ligand_efficiency>  (234) 
{u'le': u'0.39', u'bei': u'21.14', u'sei': u'6.43', u'lle': u'4.03'}

>  <standard_flag>  (234) 
True

>  <molecule_chembl_id>  (234) 
CHEMBL348209

>  <target_organism>  (234) 
Homo sapiens

>  <standard_units>  (234) 
nM

>  <record_id>  (234) 
292872

>  <document_chembl_id>  (234) 
CHEMBL1135401

>  <bao_format>  (234) 
BAO_0000357

>  <data_validity_description>  (234) 
None

>  <activity_id>  (234) 
892022

>  <standard_type>  (234) 
IC50

>  <target_chembl_id>  (234) 
CHEMBL202

>  <data_validity_comment>  (234) 
None

>  <published_value>  (234) 
250

>  <document_year>  (234) 
2002

>  <target_pref_name>  (234) 
Dihydrofolate reductase

>  <assay_chembl_id>  (234) 
CHEMBL669986

>  <standard_relation>  (234) 
=

>  <assay_description>  (234) 
Antimycobacterial activity against human dihydrofolate reductase (hDHFR)

>  <published_relation>  (234) 
=

>  <standard_value>  (234) 
250

>  <qudt_units>  (234) 
http://www.openphacts.org/units/Nanomolar

>  <target_tax_id>  (234) 
9606

>  <bao_label>  (234) 
single protein format

>  <published_units>  (234) 
nM

>  <pchembl_value>  (234) 
6.6

>  <published_type>  (234) 
IC50

>  <activity_comment>  (234) 
None

$$$$

     RDKit          

 24 27  0  0  0  0  0  0  0  0999 V2000
    0.0000    0.0000    0.0000 N   0  0  0  0  0  0  0  0  0  0  0  0
    0.0000    0.0000    0.0000 C   0  0  0  0  0  0  0  0  0  0  0  0
    0.0000    0.0000    0.0000 N   0  0  0  0  0  0  0  0  0  0  0  0
    0.0000    0.0000    0.0000 C   0  0  0  0  0  0  0  0  0  0  0  0
    0.0000    0.0000    0.0000 N   0  0  0  0  0  0  0  0  0  0  0  0
    0.0000    0.0000    0.0000 C   0  0  0  0  0  0  0  0  0  0  0  0
    0.0000    0.0000    0.0000 C   0  0  0  0  0  0  0  0  0  0  0  0
    0.0000    0.0000    0.0000 C   0  0  0  0  0  0  0  0  0  0  0  0
    0.0000    0.0000    0.0000 C   0  0  0  0  0  0  0  0  0  0  0  0
    0.0000    0.0000    0.0000 N   0  0  0  0  0  0  0  0  0  0  0  0
    0.0000    0.0000    0.0000 C   0  0  0  0  0  0  0  0  0  0  0  0
    0.0000    0.0000    0.0000 C   0  0  0  0  0  0  0  0  0  0  0  0
    0.0000    0.0000    0.0000 C   0  0  0  0  0  0  0  0  0  0  0  0
    0.0000    0.0000    0.0000 C   0  0  0  0  0  0  0  0  0  0  0  0
    0.0000    0.0000    0.0000 C   0  0  0  0  0  0  0  0  0  0  0  0
    0.0000    0.0000    0.0000 C   0  0  0  0  0  0  0  0  0  0  0  0
    0.0000    0.0000    0.0000 C   0  0  0  0  0  0  0  0  0  0  0  0
    0.0000    0.0000    0.0000 C   0  0  0  0  0  0  0  0  0  0  0  0
    0.0000    0.0000    0.0000 C   0  0  0  0  0  0  0  0  0  0  0  0
    0.0000    0.0000    0.0000 C   0  0  0  0  0  0  0  0  0  0  0  0
    0.0000    0.0000    0.0000 C   0  0  0  0  0  0  0  0  0  0  0  0
    0.0000    0.0000    0.0000 N   0  0  0  0  0  0  0  0  0  0  0  0
    0.0000    0.0000    0.0000 C   0  0  0  0  0  0  0  0  0  0  0  0
    0.0000    0.0000    0.0000 N   0  0  0  0  0  0  0  0  0  0  0  0
  1  2  1  0
  2  3  2  0
  3  4  1  0
  4  5  1  0
  4  6  2  0
  6  7  1  0
  7  8  2  0
  8  9  1  0
  9 10  1  0
 10 11  1  0
 11 12  2  0
 12 13  1  0
 13 14  2  0
 14 15  1  0
 15 16  2  0
 16 17  1  0
 17 18  2  0
 18 19  1  0
 19 20  2  0
  8 21  1  0
 21 22  2  0
 22 23  1  0
 23 24  2  0
 24  2  1  0
 23  6  1  0
 20 11  1  0
 20 15  1  0
M  END
>  <pIC50>  (235) 
6.09

>  <ChEMBL_ID>  (235) 
CHEMBL22924

>  <document_journal>  (235) 
J. Med. Chem.

>  <bao_endpoint>  (235) 
BAO_0000190

>  <potential_duplicate>  (235) 
False

>  <uo_units>  (235) 
UO_0000065

>  <canonical_smiles>  (235) 
Nc1nc(N)c2cc(CNc3cccc4ccccc34)cnc2n1

>  <parent_molecule_chembl_id>  (235) 
CHEMBL22924

>  <assay_type>  (235) 
B

>  <src_id>  (235) 
1

>  <ligand_efficiency>  (235) 
{u'le': u'0.35', u'bei': u'19.24', u'sei': u'5.92', u'lle': u'3.79'}

>  <standard_flag>  (235) 
True

>  <molecule_chembl_id>  (235) 
CHEMBL22924

>  <target_organism>  (235) 
Homo sapiens

>  <standard_units>  (235) 
nM

>  <record_id>  (235) 
292883

>  <document_chembl_id>  (235) 
CHEMBL1135401

>  <bao_format>  (235) 
BAO_0000357

>  <data_validity_description>  (235) 
None

>  <activity_id>  (235) 
892064

>  <standard_type>  (235) 
IC50

>  <target_chembl_id>  (235) 
CHEMBL202

>  <data_validity_comment>  (235) 
None

>  <published_value>  (235) 
820

>  <document_year>  (235) 
2002

>  <target_pref_name>  (235) 
Dihydrofolate reductase

>  <assay_chembl_id>  (235) 
CHEMBL669986

>  <standard_relation>  (235) 
=

>  <assay_description>  (235) 
Antimycobacterial activity against human dihydrofolate reductase (hDHFR)

>  <published_relation>  (235) 
=

>  <standard_value>  (235) 
820

>  <qudt_units>  (235) 
http://www.openphacts.org/units/Nanomolar

>  <target_tax_id>  (235) 
9606

>  <bao_label>  (235) 
single protein format

>  <published_units>  (235) 
nM

>  <pchembl_value>  (235) 
6.09

>  <published_type>  (235) 
IC50

>  <activity_comment>  (235) 
None

$$$$

     RDKit          

 25 28  0  0  0  0  0  0  0  0999 V2000
    0.0000    0.0000    0.0000 C   0  0  0  0  0  0  0  0  0  0  0  0
    0.0000    0.0000    0.0000 C   0  0  0  0  0  0  0  0  0  0  0  0
    0.0000    0.0000    0.0000 C   0  0  0  0  0  0  0  0  0  0  0  0
    0.0000    0.0000    0.0000 C   0  0  0  0  0  0  0  0  0  0  0  0
    0.0000    0.0000    0.0000 N   0  0  0  0  0  0  0  0  0  0  0  0
    0.0000    0.0000    0.0000 C   0  0  0  0  0  0  0  0  0  0  0  0
    0.0000    0.0000    0.0000 C   0  0  0  0  0  0  0  0  0  0  0  0
    0.0000    0.0000    0.0000 C   0  0  0  0  0  0  0  0  0  0  0  0
    0.0000    0.0000    0.0000 C   0  0  0  0  0  0  0  0  0  0  0  0
    0.0000    0.0000    0.0000 C   0  0  0  0  0  0  0  0  0  0  0  0
    0.0000    0.0000    0.0000 N   0  0  0  0  0  0  0  0  0  0  0  0
    0.0000    0.0000    0.0000 C   0  0  0  0  0  0  0  0  0  0  0  0
    0.0000    0.0000    0.0000 C   0  0  0  0  0  0  0  0  0  0  0  0
    0.0000    0.0000    0.0000 C   0  0  0  0  0  0  0  0  0  0  0  0
    0.0000    0.0000    0.0000 C   0  0  0  0  0  0  0  0  0  0  0  0
    0.0000    0.0000    0.0000 C   0  0  0  0  0  0  0  0  0  0  0  0
    0.0000    0.0000    0.0000 N   0  0  0  0  0  0  0  0  0  0  0  0
    0.0000    0.0000    0.0000 C   0  0  0  0  0  0  0  0  0  0  0  0
    0.0000    0.0000    0.0000 N   0  0  0  0  0  0  0  0  0  0  0  0
    0.0000    0.0000    0.0000 C   0  0  0  0  0  0  0  0  0  0  0  0
    0.0000    0.0000    0.0000 N   0  0  0  0  0  0  0  0  0  0  0  0
    0.0000    0.0000    0.0000 N   0  0  0  0  0  0  0  0  0  0  0  0
    0.0000    0.0000    0.0000 C   0  0  0  0  0  0  0  0  0  0  0  0
    0.0000    0.0000    0.0000 N   0  0  0  0  0  0  0  0  0  0  0  0
    0.0000    0.0000    0.0000 C   0  0  0  0  0  0  0  0  0  0  0  0
  1  2  1  0
  2  3  2  0
  3  4  1  0
  4  5  1  0
  5  6  1  0
  6  7  2  0
  7  8  1  0
  8  9  2  0
  9 10  1  0
 10 11  2  0
 11 12  1  0
 12 13  2  0
 13 14  1  0
 14 15  2  0
  3 16  1  0
 16 17  2  0
 17 18  1  0
 18 19  2  0
 19 20  1  0
 20 21  1  0
 20 22  2  0
 22 23  1  0
 23 24  1  0
 23 25  2  0
 25  2  1  0
 15  6  1  0
 15 10  1  0
 25 18  1  0
M  END
>  <pIC50>  (236) 
8.37

>  <ChEMBL_ID>  (236) 
CHEMBL151958

>  <document_journal>  (236) 
J. Med. Chem.

>  <bao_endpoint>  (236) 
BAO_0000190

>  <potential_duplicate>  (236) 
False

>  <uo_units>  (236) 
UO_0000065

>  <canonical_smiles>  (236) 
Cc1c(CNc2cccc3ncccc23)cnc4nc(N)nc(N)c14

>  <parent_molecule_chembl_id>  (236) 
CHEMBL151958

>  <assay_type>  (236) 
B

>  <src_id>  (236) 
1

>  <ligand_efficiency>  (236) 
{u'le': u'0.46', u'bei': u'25.25', u'sei': u'7.24', u'lle': u'6.31'}

>  <standard_flag>  (236) 
True

>  <molecule_chembl_id>  (236) 
CHEMBL151958

>  <target_organism>  (236) 
Homo sapiens

>  <standard_units>  (236) 
nM

>  <record_id>  (236) 
292875

>  <document_chembl_id>  (236) 
CHEMBL1135401

>  <bao_format>  (236) 
BAO_0000357

>  <data_validity_description>  (236) 
None

>  <activity_id>  (236) 
892066

>  <standard_type>  (236) 
IC50

>  <target_chembl_id>  (236) 
CHEMBL202

>  <data_validity_comment>  (236) 
None

>  <published_value>  (236) 
4.3

>  <document_year>  (236) 
2002

>  <target_pref_name>  (236) 
Dihydrofolate reductase

>  <assay_chembl_id>  (236) 
CHEMBL669986

>  <standard_relation>  (236) 
=

>  <assay_description>  (236) 
Antimycobacterial activity against human dihydrofolate reductase (hDHFR)

>  <published_relation>  (236) 
=

>  <standard_value>  (236) 
4.3

>  <qudt_units>  (236) 
http://www.openphacts.org/units/Nanomolar

>  <target_tax_id>  (236) 
9606

>  <bao_label>  (236) 
single protein format

>  <published_units>  (236) 
nM

>  <pchembl_value>  (236) 
8.37

>  <published_type>  (236) 
IC50

>  <activity_comment>  (236) 
None

$$$$

     RDKit          

 27 29  0  0  0  0  0  0  0  0999 V2000
    0.0000    0.0000    0.0000 C   0  0  0  0  0  0  0  0  0  0  0  0
    0.0000    0.0000    0.0000 O   0  0  0  0  0  0  0  0  0  0  0  0
    0.0000    0.0000    0.0000 C   0  0  0  0  0  0  0  0  0  0  0  0
    0.0000    0.0000    0.0000 C   0  0  0  0  0  0  0  0  0  0  0  0
    0.0000    0.0000    0.0000 C   0  0  0  0  0  0  0  0  0  0  0  0
    0.0000    0.0000    0.0000 C   0  0  0  0  0  0  0  0  0  0  0  0
    0.0000    0.0000    0.0000 C   0  0  0  0  0  0  0  0  0  0  0  0
    0.0000    0.0000    0.0000 C   0  0  0  0  0  0  0  0  0  0  0  0
    0.0000    0.0000    0.0000 N   0  0  0  0  0  0  0  0  0  0  0  0
    0.0000    0.0000    0.0000 C   0  0  0  0  0  0  0  0  0  0  0  0
    0.0000    0.0000    0.0000 C   0  0  0  0  0  0  0  0  0  0  0  0
    0.0000    0.0000    0.0000 C   0  0  0  0  0  0  0  0  0  0  0  0
    0.0000    0.0000    0.0000 N   0  0  0  0  0  0  0  0  0  0  0  0
    0.0000    0.0000    0.0000 C   0  0  0  0  0  0  0  0  0  0  0  0
    0.0000    0.0000    0.0000 N   0  0  0  0  0  0  0  0  0  0  0  0
    0.0000    0.0000    0.0000 C   0  0  0  0  0  0  0  0  0  0  0  0
    0.0000    0.0000    0.0000 N   0  0  0  0  0  0  0  0  0  0  0  0
    0.0000    0.0000    0.0000 N   0  0  0  0  0  0  0  0  0  0  0  0
    0.0000    0.0000    0.0000 C   0  0  0  0  0  0  0  0  0  0  0  0
    0.0000    0.0000    0.0000 N   0  0  0  0  0  0  0  0  0  0  0  0
    0.0000    0.0000    0.0000 C   0  0  0  0  0  0  0  0  0  0  0  0
    0.0000    0.0000    0.0000 C   0  0  0  0  0  0  0  0  0  0  0  0
    0.0000    0.0000    0.0000 C   0  0  0  0  0  0  0  0  0  0  0  0
    0.0000    0.0000    0.0000 C   0  0  0  0  0  0  0  0  0  0  0  0
    0.0000    0.0000    0.0000 F   0  0  0  0  0  0  0  0  0  0  0  0
    0.0000    0.0000    0.0000 F   0  0  0  0  0  0  0  0  0  0  0  0
    0.0000    0.0000    0.0000 F   0  0  0  0  0  0  0  0  0  0  0  0
  1  2  1  0
  2  3  1  0
  3  4  2  0
  4  5  1  0
  5  6  2  0
  6  7  1  0
  7  8  2  0
  8  9  1  0
  9 10  1  0
 10 11  1  0
 11 12  2  0
 12 13  1  0
 13 14  2  0
 14 15  1  0
 15 16  2  0
 16 17  1  0
 16 18  1  0
 18 19  2  0
 19 20  1  0
 19 21  1  0
 21 22  2  0
 22 23  1  0
  6 24  1  0
 24 25  1  0
 24 26  1  0
 24 27  1  0
  8  3  1  0
 22 11  1  0
 21 14  1  0
M  END
>  <pIC50>  (237) 
8.57

>  <ChEMBL_ID>  (237) 
CHEMBL281648

>  <document_journal>  (237) 
J. Med. Chem.

>  <bao_endpoint>  (237) 
BAO_0000190

>  <potential_duplicate>  (237) 
False

>  <uo_units>  (237) 
UO_0000065

>  <canonical_smiles>  (237) 
COc1ccc(cc1NCc2cnc3nc(N)nc(N)c3c2C)C(F)(F)F

>  <parent_molecule_chembl_id>  (237) 
CHEMBL281648

>  <assay_type>  (237) 
B

>  <src_id>  (237) 
1

>  <ligand_efficiency>  (237) 
{u'le': u'0.43', u'bei': u'22.65', u'sei': u'7.65', u'lle': u'5.77'}

>  <standard_flag>  (237) 
True

>  <molecule_chembl_id>  (237) 
CHEMBL281648

>  <target_organism>  (237) 
Homo sapiens

>  <standard_units>  (237) 
nM

>  <record_id>  (237) 
292891

>  <document_chembl_id>  (237) 
CHEMBL1135401

>  <bao_format>  (237) 
BAO_0000357

>  <data_validity_description>  (237) 
None

>  <activity_id>  (237) 
893113

>  <standard_type>  (237) 
IC50

>  <target_chembl_id>  (237) 
CHEMBL202

>  <data_validity_comment>  (237) 
None

>  <published_value>  (237) 
2.7

>  <document_year>  (237) 
2002

>  <target_pref_name>  (237) 
Dihydrofolate reductase

>  <assay_chembl_id>  (237) 
CHEMBL669986

>  <standard_relation>  (237) 
=

>  <assay_description>  (237) 
Antimycobacterial activity against human dihydrofolate reductase (hDHFR)

>  <published_relation>  (237) 
=

>  <standard_value>  (237) 
2.7

>  <qudt_units>  (237) 
http://www.openphacts.org/units/Nanomolar

>  <target_tax_id>  (237) 
9606

>  <bao_label>  (237) 
single protein format

>  <published_units>  (237) 
nM

>  <pchembl_value>  (237) 
8.57

>  <published_type>  (237) 
IC50

>  <activity_comment>  (237) 
None

$$$$

     RDKit          

 29 31  0  0  0  0  0  0  0  0999 V2000
    0.0000    0.0000    0.0000 C   0  0  0  0  0  0  0  0  0  0  0  0
    0.0000    0.0000    0.0000 O   0  0  0  0  0  0  0  0  0  0  0  0
    0.0000    0.0000    0.0000 C   0  0  0  0  0  0  0  0  0  0  0  0
    0.0000    0.0000    0.0000 C   0  0  0  0  0  0  0  0  0  0  0  0
    0.0000    0.0000    0.0000 C   0  0  0  0  0  0  0  0  0  0  0  0
    0.0000    0.0000    0.0000 C   0  0  0  0  0  0  0  0  0  0  0  0
    0.0000    0.0000    0.0000 N   0  0  0  0  0  0  0  0  0  0  0  0
    0.0000    0.0000    0.0000 C   0  0  0  0  0  0  0  0  0  0  0  0
    0.0000    0.0000    0.0000 C   0  0  0  0  0  0  0  0  0  0  0  0
    0.0000    0.0000    0.0000 C   0  0  0  0  0  0  0  0  0  0  0  0
    0.0000    0.0000    0.0000 O   0  0  0  0  0  0  0  0  0  0  0  0
    0.0000    0.0000    0.0000 C   0  0  0  0  0  0  0  0  0  0  0  0
    0.0000    0.0000    0.0000 C   0  0  0  0  0  0  0  0  0  0  0  0
    0.0000    0.0000    0.0000 O   0  0  0  0  0  0  0  0  0  0  0  0
    0.0000    0.0000    0.0000 C   0  0  0  0  0  0  0  0  0  0  0  0
    0.0000    0.0000    0.0000 C   0  0  0  0  0  0  0  0  0  0  0  0
    0.0000    0.0000    0.0000 O   0  0  0  0  0  0  0  0  0  0  0  0
    0.0000    0.0000    0.0000 C   0  0  0  0  0  0  0  0  0  0  0  0
    0.0000    0.0000    0.0000 C   0  0  0  0  0  0  0  0  0  0  0  0
    0.0000    0.0000    0.0000 C   0  0  0  0  0  0  0  0  0  0  0  0
    0.0000    0.0000    0.0000 N   0  0  0  0  0  0  0  0  0  0  0  0
    0.0000    0.0000    0.0000 C   0  0  0  0  0  0  0  0  0  0  0  0
    0.0000    0.0000    0.0000 N   0  0  0  0  0  0  0  0  0  0  0  0
    0.0000    0.0000    0.0000 C   0  0  0  0  0  0  0  0  0  0  0  0
    0.0000    0.0000    0.0000 N   0  0  0  0  0  0  0  0  0  0  0  0
    0.0000    0.0000    0.0000 N   0  0  0  0  0  0  0  0  0  0  0  0
    0.0000    0.0000    0.0000 C   0  0  0  0  0  0  0  0  0  0  0  0
    0.0000    0.0000    0.0000 N   0  0  0  0  0  0  0  0  0  0  0  0
    0.0000    0.0000    0.0000 C   0  0  0  0  0  0  0  0  0  0  0  0
  1  2  1  0
  2  3  1  0
  3  4  1  0
  4  5  2  0
  5  6  1  0
  6  7  1  0
  7  8  1  0
  8  9  2  0
  9 10  1  0
 10 11  1  0
 11 12  1  0
 10 13  2  0
 13 14  1  0
 14 15  1  0
 13 16  1  0
 16 17  1  0
 17 18  1  0
 16 19  2  0
  5 20  1  0
 20 21  2  0
 21 22  1  0
 22 23  2  0
 23 24  1  0
 24 25  1  0
 24 26  2  0
 26 27  1  0
 27 28  1  0
 27 29  2  0
 29  4  1  0
 19  8  1  0
 29 22  1  0
M  END
>  <pIC50>  (238) 
5.89

>  <ChEMBL_ID>  (238) 
CHEMBL151673

>  <document_journal>  (238) 
J. Med. Chem.

>  <bao_endpoint>  (238) 
BAO_0000190

>  <potential_duplicate>  (238) 
False

>  <uo_units>  (238) 
UO_0000065

>  <canonical_smiles>  (238) 
COCc1c(CNc2cc(OC)c(OC)c(OC)c2)cnc3nc(N)nc(N)c13

>  <parent_molecule_chembl_id>  (238) 
CHEMBL151673

>  <assay_type>  (238) 
B

>  <src_id>  (238) 
1

>  <ligand_efficiency>  (238) 
{u'le': u'0.28', u'bei': u'14.7', u'sei': u'4.21', u'lle': u'4.74'}

>  <standard_flag>  (238) 
True

>  <molecule_chembl_id>  (238) 
CHEMBL151673

>  <target_organism>  (238) 
Homo sapiens

>  <standard_units>  (238) 
nM

>  <record_id>  (238) 
292888

>  <document_chembl_id>  (238) 
CHEMBL1135401

>  <bao_format>  (238) 
BAO_0000357

>  <data_validity_description>  (238) 
None

>  <activity_id>  (238) 
893117

>  <standard_type>  (238) 
IC50

>  <target_chembl_id>  (238) 
CHEMBL202

>  <data_validity_comment>  (238) 
None

>  <published_value>  (238) 
1300

>  <document_year>  (238) 
2002

>  <target_pref_name>  (238) 
Dihydrofolate reductase

>  <assay_chembl_id>  (238) 
CHEMBL669986

>  <standard_relation>  (238) 
=

>  <assay_description>  (238) 
Antimycobacterial activity against human dihydrofolate reductase (hDHFR)

>  <published_relation>  (238) 
=

>  <standard_value>  (238) 
1300

>  <qudt_units>  (238) 
http://www.openphacts.org/units/Nanomolar

>  <target_tax_id>  (238) 
9606

>  <bao_label>  (238) 
single protein format

>  <published_units>  (238) 
nM

>  <pchembl_value>  (238) 
5.89

>  <published_type>  (238) 
IC50

>  <activity_comment>  (238) 
None

$$$$

     RDKit          

 26 28  0  0  0  0  0  0  0  0999 V2000
    0.0000    0.0000    0.0000 C   0  0  0  0  0  0  0  0  0  0  0  0
    0.0000    0.0000    0.0000 C   0  0  0  0  0  0  0  0  0  0  0  0
    0.0000    0.0000    0.0000 C   0  0  0  0  0  0  0  0  0  0  0  0
    0.0000    0.0000    0.0000 C   0  0  0  0  0  0  0  0  0  0  0  0
    0.0000    0.0000    0.0000 N   0  0  0  0  0  0  0  0  0  0  0  0
    0.0000    0.0000    0.0000 C   0  0  0  0  0  0  0  0  0  0  0  0
    0.0000    0.0000    0.0000 C   0  0  0  0  0  0  0  0  0  0  0  0
    0.0000    0.0000    0.0000 C   0  0  0  0  0  0  0  0  0  0  0  0
    0.0000    0.0000    0.0000 C   0  0  0  0  0  0  0  0  0  0  0  0
    0.0000    0.0000    0.0000 C   0  0  0  0  0  0  0  0  0  0  0  0
    0.0000    0.0000    0.0000 C   0  0  0  0  0  0  0  0  0  0  0  0
    0.0000    0.0000    0.0000 F   0  0  0  0  0  0  0  0  0  0  0  0
    0.0000    0.0000    0.0000 C   0  0  0  0  0  0  0  0  0  0  0  0
    0.0000    0.0000    0.0000 F   0  0  0  0  0  0  0  0  0  0  0  0
    0.0000    0.0000    0.0000 F   0  0  0  0  0  0  0  0  0  0  0  0
    0.0000    0.0000    0.0000 F   0  0  0  0  0  0  0  0  0  0  0  0
    0.0000    0.0000    0.0000 C   0  0  0  0  0  0  0  0  0  0  0  0
    0.0000    0.0000    0.0000 N   0  0  0  0  0  0  0  0  0  0  0  0
    0.0000    0.0000    0.0000 C   0  0  0  0  0  0  0  0  0  0  0  0
    0.0000    0.0000    0.0000 N   0  0  0  0  0  0  0  0  0  0  0  0
    0.0000    0.0000    0.0000 C   0  0  0  0  0  0  0  0  0  0  0  0
    0.0000    0.0000    0.0000 N   0  0  0  0  0  0  0  0  0  0  0  0
    0.0000    0.0000    0.0000 N   0  0  0  0  0  0  0  0  0  0  0  0
    0.0000    0.0000    0.0000 C   0  0  0  0  0  0  0  0  0  0  0  0
    0.0000    0.0000    0.0000 N   0  0  0  0  0  0  0  0  0  0  0  0
    0.0000    0.0000    0.0000 C   0  0  0  0  0  0  0  0  0  0  0  0
  1  2  1  0
  2  3  2  0
  3  4  1  0
  4  5  1  0
  5  6  1  0
  6  7  2  0
  7  8  1  0
  8  9  2  0
  9 10  1  0
 10 11  2  0
 11 12  1  0
  8 13  1  0
 13 14  1  0
 13 15  1  0
 13 16  1  0
  3 17  1  0
 17 18  2  0
 18 19  1  0
 19 20  2  0
 20 21  1  0
 21 22  1  0
 21 23  2  0
 23 24  1  0
 24 25  1  0
 24 26  2  0
 26  2  1  0
 11  6  1  0
 26 19  1  0
M  END
>  <pIC50>  (239) 
8.39

>  <ChEMBL_ID>  (239) 
CHEMBL358884

>  <document_journal>  (239) 
J. Med. Chem.

>  <bao_endpoint>  (239) 
BAO_0000190

>  <potential_duplicate>  (239) 
False

>  <uo_units>  (239) 
UO_0000065

>  <canonical_smiles>  (239) 
Cc1c(CNc2cc(ccc2F)C(F)(F)F)cnc3nc(N)nc(N)c13

>  <parent_molecule_chembl_id>  (239) 
CHEMBL358884

>  <assay_type>  (239) 
B

>  <src_id>  (239) 
1

>  <ligand_efficiency>  (239) 
{u'le': u'0.44', u'bei': u'22.9', u'sei': u'8.16', u'lle': u'5.36'}

>  <standard_flag>  (239) 
True

>  <molecule_chembl_id>  (239) 
CHEMBL358884

>  <target_organism>  (239) 
Homo sapiens

>  <standard_units>  (239) 
nM

>  <record_id>  (239) 
292892

>  <document_chembl_id>  (239) 
CHEMBL1135401

>  <bao_format>  (239) 
BAO_0000357

>  <data_validity_description>  (239) 
None

>  <activity_id>  (239) 
894301

>  <standard_type>  (239) 
IC50

>  <target_chembl_id>  (239) 
CHEMBL202

>  <data_validity_comment>  (239) 
None

>  <published_value>  (239) 
4.1

>  <document_year>  (239) 
2002

>  <target_pref_name>  (239) 
Dihydrofolate reductase

>  <assay_chembl_id>  (239) 
CHEMBL669986

>  <standard_relation>  (239) 
=

>  <assay_description>  (239) 
Antimycobacterial activity against human dihydrofolate reductase (hDHFR)

>  <published_relation>  (239) 
=

>  <standard_value>  (239) 
4.1

>  <qudt_units>  (239) 
http://www.openphacts.org/units/Nanomolar

>  <target_tax_id>  (239) 
9606

>  <bao_label>  (239) 
single protein format

>  <published_units>  (239) 
nM

>  <pchembl_value>  (239) 
8.39

>  <published_type>  (239) 
IC50

>  <activity_comment>  (239) 
None

$$$$

     RDKit          

 22 24  0  0  0  0  0  0  0  0999 V2000
    0.0000    0.0000    0.0000 C   0  0  0  0  0  0  0  0  0  0  0  0
    0.0000    0.0000    0.0000 C   0  0  0  0  0  0  0  0  0  0  0  0
    0.0000    0.0000    0.0000 C   0  0  0  0  0  0  0  0  0  0  0  0
    0.0000    0.0000    0.0000 C   0  0  0  0  0  0  0  0  0  0  0  0
    0.0000    0.0000    0.0000 C   0  0  0  0  0  0  0  0  0  0  0  0
    0.0000    0.0000    0.0000 C   0  0  0  0  0  0  0  0  0  0  0  0
    0.0000    0.0000    0.0000 S   0  0  0  0  0  0  0  0  0  0  0  0
    0.0000    0.0000    0.0000 C   0  0  0  0  0  0  0  0  0  0  0  0
    0.0000    0.0000    0.0000 C   0  0  0  0  0  0  0  0  0  0  0  0
    0.0000    0.0000    0.0000 C   0  0  0  0  0  0  0  0  0  0  0  0
    0.0000    0.0000    0.0000 N   0  0  0  0  0  0  0  0  0  0  0  0
    0.0000    0.0000    0.0000 C   0  0  0  0  0  0  0  0  0  0  0  0
    0.0000    0.0000    0.0000 N   0  0  0  0  0  0  0  0  0  0  0  0
    0.0000    0.0000    0.0000 C   0  0  0  0  0  0  0  0  0  0  0  0
    0.0000    0.0000    0.0000 N   0  0  0  0  0  0  0  0  0  0  0  0
    0.0000    0.0000    0.0000 N   0  0  0  0  0  0  0  0  0  0  0  0
    0.0000    0.0000    0.0000 C   0  0  0  0  0  0  0  0  0  0  0  0
    0.0000    0.0000    0.0000 N   0  0  0  0  0  0  0  0  0  0  0  0
    0.0000    0.0000    0.0000 C   0  0  0  0  0  0  0  0  0  0  0  0
    0.0000    0.0000    0.0000 C   0  0  0  0  0  0  0  0  0  0  0  0
    0.0000    0.0000    0.0000 C   0  0  0  0  0  0  0  0  0  0  0  0
    0.0000    0.0000    0.0000 C   0  0  0  0  0  0  0  0  0  0  0  0
  1  2  1  0
  2  3  2  0
  3  4  1  0
  4  5  2  0
  5  6  1  0
  6  7  1  0
  7  8  1  0
  8  9  1  0
  9 10  2  0
 10 11  1  0
 11 12  2  0
 12 13  1  0
 13 14  2  0
 14 15  1  0
 14 16  1  0
 16 17  2  0
 17 18  1  0
 17 19  1  0
 19 20  2  0
 20 21  1  0
  6 22  2  0
 22  2  1  0
 20  9  1  0
 19 12  1  0
M  END
>  <pIC50>  (240) 
6.07

>  <ChEMBL_ID>  (240) 
CHEMBL23272

>  <document_journal>  (240) 
J. Med. Chem.

>  <bao_endpoint>  (240) 
BAO_0000190

>  <potential_duplicate>  (240) 
False

>  <uo_units>  (240) 
UO_0000065

>  <canonical_smiles>  (240) 
Cc1cccc(SCc2cnc3nc(N)nc(N)c3c2C)c1

>  <parent_molecule_chembl_id>  (240) 
CHEMBL23272

>  <assay_type>  (240) 
B

>  <src_id>  (240) 
1

>  <ligand_efficiency>  (240) 
{u'le': u'0.38', u'bei': u'19.49', u'sei': u'5.23', u'lle': u'2.97'}

>  <standard_flag>  (240) 
True

>  <molecule_chembl_id>  (240) 
CHEMBL23272

>  <target_organism>  (240) 
Homo sapiens

>  <standard_units>  (240) 
nM

>  <record_id>  (240) 
292904

>  <document_chembl_id>  (240) 
CHEMBL1135401

>  <bao_format>  (240) 
BAO_0000357

>  <data_validity_description>  (240) 
None

>  <activity_id>  (240) 
894305

>  <standard_type>  (240) 
IC50

>  <target_chembl_id>  (240) 
CHEMBL202

>  <data_validity_comment>  (240) 
None

>  <published_value>  (240) 
850

>  <document_year>  (240) 
2002

>  <target_pref_name>  (240) 
Dihydrofolate reductase

>  <assay_chembl_id>  (240) 
CHEMBL669986

>  <standard_relation>  (240) 
=

>  <assay_description>  (240) 
Antimycobacterial activity against human dihydrofolate reductase (hDHFR)

>  <published_relation>  (240) 
=

>  <standard_value>  (240) 
850

>  <qudt_units>  (240) 
http://www.openphacts.org/units/Nanomolar

>  <target_tax_id>  (240) 
9606

>  <bao_label>  (240) 
single protein format

>  <published_units>  (240) 
nM

>  <pchembl_value>  (240) 
6.07

>  <published_type>  (240) 
IC50

>  <activity_comment>  (240) 
None

$$$$

     RDKit          

 27 29  0  0  0  0  0  0  0  0999 V2000
    0.0000    0.0000    0.0000 C   0  0  0  0  0  0  0  0  0  0  0  0
    0.0000    0.0000    0.0000 O   0  0  0  0  0  0  0  0  0  0  0  0
    0.0000    0.0000    0.0000 C   0  0  0  0  0  0  0  0  0  0  0  0
    0.0000    0.0000    0.0000 C   0  0  0  0  0  0  0  0  0  0  0  0
    0.0000    0.0000    0.0000 C   0  0  0  0  0  0  0  0  0  0  0  0
    0.0000    0.0000    0.0000 S   0  0  0  0  0  0  0  0  0  0  0  0
    0.0000    0.0000    0.0000 C   0  0  0  0  0  0  0  0  0  0  0  0
    0.0000    0.0000    0.0000 C   0  0  0  0  0  0  0  0  0  0  0  0
    0.0000    0.0000    0.0000 C   0  0  0  0  0  0  0  0  0  0  0  0
    0.0000    0.0000    0.0000 N   0  0  0  0  0  0  0  0  0  0  0  0
    0.0000    0.0000    0.0000 C   0  0  0  0  0  0  0  0  0  0  0  0
    0.0000    0.0000    0.0000 N   0  0  0  0  0  0  0  0  0  0  0  0
    0.0000    0.0000    0.0000 C   0  0  0  0  0  0  0  0  0  0  0  0
    0.0000    0.0000    0.0000 N   0  0  0  0  0  0  0  0  0  0  0  0
    0.0000    0.0000    0.0000 N   0  0  0  0  0  0  0  0  0  0  0  0
    0.0000    0.0000    0.0000 C   0  0  0  0  0  0  0  0  0  0  0  0
    0.0000    0.0000    0.0000 N   0  0  0  0  0  0  0  0  0  0  0  0
    0.0000    0.0000    0.0000 C   0  0  0  0  0  0  0  0  0  0  0  0
    0.0000    0.0000    0.0000 C   0  0  0  0  0  0  0  0  0  0  0  0
    0.0000    0.0000    0.0000 C   0  0  0  0  0  0  0  0  0  0  0  0
    0.0000    0.0000    0.0000 C   0  0  0  0  0  0  0  0  0  0  0  0
    0.0000    0.0000    0.0000 C   0  0  0  0  0  0  0  0  0  0  0  0
    0.0000    0.0000    0.0000 O   0  0  0  0  0  0  0  0  0  0  0  0
    0.0000    0.0000    0.0000 C   0  0  0  0  0  0  0  0  0  0  0  0
    0.0000    0.0000    0.0000 C   0  0  0  0  0  0  0  0  0  0  0  0
    0.0000    0.0000    0.0000 O   0  0  0  0  0  0  0  0  0  0  0  0
    0.0000    0.0000    0.0000 C   0  0  0  0  0  0  0  0  0  0  0  0
  1  2  1  0
  2  3  1  0
  3  4  2  0
  4  5  1  0
  5  6  1  0
  6  7  1  0
  7  8  1  0
  8  9  2  0
  9 10  1  0
 10 11  2  0
 11 12  1  0
 12 13  2  0
 13 14  1  0
 13 15  1  0
 15 16  2  0
 16 17  1  0
 16 18  1  0
 18 19  2  0
 19 20  1  0
  5 21  2  0
 21 22  1  0
 22 23  1  0
 23 24  1  0
 22 25  2  0
 25 26  1  0
 26 27  1  0
 25  3  1  0
 19  8  1  0
 18 11  1  0
M  END
>  <pIC50>  (241) 
5.92

>  <ChEMBL_ID>  (241) 
CHEMBL148938

>  <document_journal>  (241) 
J. Med. Chem.

>  <bao_endpoint>  (241) 
BAO_0000190

>  <potential_duplicate>  (241) 
False

>  <uo_units>  (241) 
UO_0000065

>  <canonical_smiles>  (241) 
COc1cc(SCc2cnc3nc(N)nc(N)c3c2C)cc(OC)c1OC

>  <parent_molecule_chembl_id>  (241) 
CHEMBL148938

>  <assay_type>  (241) 
B

>  <src_id>  (241) 
1

>  <ligand_efficiency>  (241) 
{u'le': u'0.3', u'bei': u'15.28', u'sei': u'4.12', u'lle': u'3.36'}

>  <standard_flag>  (241) 
True

>  <molecule_chembl_id>  (241) 
CHEMBL148938

>  <target_organism>  (241) 
Homo sapiens

>  <standard_units>  (241) 
nM

>  <record_id>  (241) 
292911

>  <document_chembl_id>  (241) 
CHEMBL1135401

>  <bao_format>  (241) 
BAO_0000357

>  <data_validity_description>  (241) 
None

>  <activity_id>  (241) 
895404

>  <standard_type>  (241) 
IC50

>  <target_chembl_id>  (241) 
CHEMBL202

>  <data_validity_comment>  (241) 
None

>  <published_value>  (241) 
1200

>  <document_year>  (241) 
2002

>  <target_pref_name>  (241) 
Dihydrofolate reductase

>  <assay_chembl_id>  (241) 
CHEMBL669986

>  <standard_relation>  (241) 
=

>  <assay_description>  (241) 
Antimycobacterial activity against human dihydrofolate reductase (hDHFR)

>  <published_relation>  (241) 
=

>  <standard_value>  (241) 
1200

>  <qudt_units>  (241) 
http://www.openphacts.org/units/Nanomolar

>  <target_tax_id>  (241) 
9606

>  <bao_label>  (241) 
single protein format

>  <published_units>  (241) 
nM

>  <pchembl_value>  (241) 
5.92

>  <published_type>  (241) 
IC50

>  <activity_comment>  (241) 
None

$$$$

     RDKit          

 25 28  0  0  0  0  0  0  0  0999 V2000
    0.0000    0.0000    0.0000 C   0  0  0  0  0  0  0  0  0  0  0  0
    0.0000    0.0000    0.0000 C   0  0  0  0  0  0  0  0  0  0  0  0
    0.0000    0.0000    0.0000 C   0  0  0  0  0  0  0  0  0  0  0  0
    0.0000    0.0000    0.0000 C   0  0  0  0  0  0  0  0  0  0  0  0
    0.0000    0.0000    0.0000 N   0  0  0  0  0  0  0  0  0  0  0  0
    0.0000    0.0000    0.0000 C   0  0  0  0  0  0  0  0  0  0  0  0
    0.0000    0.0000    0.0000 C   0  0  0  0  0  0  0  0  0  0  0  0
    0.0000    0.0000    0.0000 C   0  0  0  0  0  0  0  0  0  0  0  0
    0.0000    0.0000    0.0000 C   0  0  0  0  0  0  0  0  0  0  0  0
    0.0000    0.0000    0.0000 C   0  0  0  0  0  0  0  0  0  0  0  0
    0.0000    0.0000    0.0000 C   0  0  0  0  0  0  0  0  0  0  0  0
    0.0000    0.0000    0.0000 C   0  0  0  0  0  0  0  0  0  0  0  0
    0.0000    0.0000    0.0000 C   0  0  0  0  0  0  0  0  0  0  0  0
    0.0000    0.0000    0.0000 C   0  0  0  0  0  0  0  0  0  0  0  0
    0.0000    0.0000    0.0000 C   0  0  0  0  0  0  0  0  0  0  0  0
    0.0000    0.0000    0.0000 C   0  0  0  0  0  0  0  0  0  0  0  0
    0.0000    0.0000    0.0000 N   0  0  0  0  0  0  0  0  0  0  0  0
    0.0000    0.0000    0.0000 C   0  0  0  0  0  0  0  0  0  0  0  0
    0.0000    0.0000    0.0000 N   0  0  0  0  0  0  0  0  0  0  0  0
    0.0000    0.0000    0.0000 C   0  0  0  0  0  0  0  0  0  0  0  0
    0.0000    0.0000    0.0000 N   0  0  0  0  0  0  0  0  0  0  0  0
    0.0000    0.0000    0.0000 N   0  0  0  0  0  0  0  0  0  0  0  0
    0.0000    0.0000    0.0000 C   0  0  0  0  0  0  0  0  0  0  0  0
    0.0000    0.0000    0.0000 N   0  0  0  0  0  0  0  0  0  0  0  0
    0.0000    0.0000    0.0000 C   0  0  0  0  0  0  0  0  0  0  0  0
  1  2  1  0
  2  3  2  0
  3  4  1  0
  4  5  1  0
  5  6  1  0
  6  7  1  0
  7  8  1  0
  8  9  1  0
  9 10  1  0
 10 11  2  0
 11 12  1  0
 12 13  2  0
 13 14  1  0
 14 15  2  0
  3 16  1  0
 16 17  2  0
 17 18  1  0
 18 19  2  0
 19 20  1  0
 20 21  1  0
 20 22  2  0
 22 23  1  0
 23 24  1  0
 23 25  2  0
 25  2  1  0
 15  6  1  0
 15 10  1  0
 25 18  1  0
M  END
>  <pIC50>  (242) 
5.47

>  <ChEMBL_ID>  (242) 
CHEMBL148591

>  <document_journal>  (242) 
J. Med. Chem.

>  <bao_endpoint>  (242) 
BAO_0000190

>  <potential_duplicate>  (242) 
False

>  <uo_units>  (242) 
UO_0000065

>  <canonical_smiles>  (242) 
Cc1c(CNC2CCCc3ccccc23)cnc4nc(N)nc(N)c14

>  <parent_molecule_chembl_id>  (242) 
CHEMBL148591

>  <assay_type>  (242) 
B

>  <src_id>  (242) 
1

>  <ligand_efficiency>  (242) 
{u'le': u'0.3', u'bei': u'16.35', u'sei': u'5.32', u'lle': u'2.85'}

>  <standard_flag>  (242) 
True

>  <molecule_chembl_id>  (242) 
CHEMBL148591

>  <target_organism>  (242) 
Homo sapiens

>  <standard_units>  (242) 
nM

>  <record_id>  (242) 
292877

>  <document_chembl_id>  (242) 
CHEMBL1135401

>  <bao_format>  (242) 
BAO_0000357

>  <data_validity_description>  (242) 
None

>  <activity_id>  (242) 
895459

>  <standard_type>  (242) 
IC50

>  <target_chembl_id>  (242) 
CHEMBL202

>  <data_validity_comment>  (242) 
None

>  <published_value>  (242) 
3400

>  <document_year>  (242) 
2002

>  <target_pref_name>  (242) 
Dihydrofolate reductase

>  <assay_chembl_id>  (242) 
CHEMBL669986

>  <standard_relation>  (242) 
=

>  <assay_description>  (242) 
Antimycobacterial activity against human dihydrofolate reductase (hDHFR)

>  <published_relation>  (242) 
=

>  <standard_value>  (242) 
3400

>  <qudt_units>  (242) 
http://www.openphacts.org/units/Nanomolar

>  <target_tax_id>  (242) 
9606

>  <bao_label>  (242) 
single protein format

>  <published_units>  (242) 
nM

>  <pchembl_value>  (242) 
5.47

>  <published_type>  (242) 
IC50

>  <activity_comment>  (242) 
None

$$$$

     RDKit          

 23 25  0  0  0  0  0  0  0  0999 V2000
    0.0000    0.0000    0.0000 C   0  0  0  0  0  0  0  0  0  0  0  0
    0.0000    0.0000    0.0000 C   0  0  0  0  0  0  0  0  0  0  0  0
    0.0000    0.0000    0.0000 C   0  0  0  0  0  0  0  0  0  0  0  0
    0.0000    0.0000    0.0000 C   0  0  0  0  0  0  0  0  0  0  0  0
    0.0000    0.0000    0.0000 N   0  0  0  0  0  0  0  0  0  0  0  0
    0.0000    0.0000    0.0000 C   0  0  0  0  0  0  0  0  0  0  0  0
    0.0000    0.0000    0.0000 C   0  0  0  0  0  0  0  0  0  0  0  0
    0.0000    0.0000    0.0000 C   0  0  0  0  0  0  0  0  0  0  0  0
    0.0000    0.0000    0.0000 F   0  0  0  0  0  0  0  0  0  0  0  0
    0.0000    0.0000    0.0000 C   0  0  0  0  0  0  0  0  0  0  0  0
    0.0000    0.0000    0.0000 C   0  0  0  0  0  0  0  0  0  0  0  0
    0.0000    0.0000    0.0000 C   0  0  0  0  0  0  0  0  0  0  0  0
    0.0000    0.0000    0.0000 F   0  0  0  0  0  0  0  0  0  0  0  0
    0.0000    0.0000    0.0000 C   0  0  0  0  0  0  0  0  0  0  0  0
    0.0000    0.0000    0.0000 N   0  0  0  0  0  0  0  0  0  0  0  0
    0.0000    0.0000    0.0000 C   0  0  0  0  0  0  0  0  0  0  0  0
    0.0000    0.0000    0.0000 N   0  0  0  0  0  0  0  0  0  0  0  0
    0.0000    0.0000    0.0000 C   0  0  0  0  0  0  0  0  0  0  0  0
    0.0000    0.0000    0.0000 N   0  0  0  0  0  0  0  0  0  0  0  0
    0.0000    0.0000    0.0000 N   0  0  0  0  0  0  0  0  0  0  0  0
    0.0000    0.0000    0.0000 C   0  0  0  0  0  0  0  0  0  0  0  0
    0.0000    0.0000    0.0000 N   0  0  0  0  0  0  0  0  0  0  0  0
    0.0000    0.0000    0.0000 C   0  0  0  0  0  0  0  0  0  0  0  0
  1  2  1  0
  2  3  2  0
  3  4  1  0
  4  5  1  0
  5  6  1  0
  6  7  2  0
  7  8  1  0
  8  9  1  0
  8 10  2  0
 10 11  1  0
 11 12  2  0
 12 13  1  0
  3 14  1  0
 14 15  2  0
 15 16  1  0
 16 17  2  0
 17 18  1  0
 18 19  1  0
 18 20  2  0
 20 21  1  0
 21 22  1  0
 21 23  2  0
 23  2  1  0
 12  6  1  0
 23 16  1  0
M  END
>  <pIC50>  (243) 
7.16

>  <ChEMBL_ID>  (243) 
CHEMBL151109

>  <document_journal>  (243) 
J. Med. Chem.

>  <bao_endpoint>  (243) 
BAO_0000190

>  <potential_duplicate>  (243) 
False

>  <uo_units>  (243) 
UO_0000065

>  <canonical_smiles>  (243) 
Cc1c(CNc2cc(F)ccc2F)cnc3nc(N)nc(N)c13

>  <parent_molecule_chembl_id>  (243) 
CHEMBL151109

>  <assay_type>  (243) 
B

>  <src_id>  (243) 
1

>  <ligand_efficiency>  (243) 
{u'le': u'0.43', u'bei': u'22.64', u'sei': u'6.97', u'lle': u'4.87'}

>  <standard_flag>  (243) 
True

>  <molecule_chembl_id>  (243) 
CHEMBL151109

>  <target_organism>  (243) 
Homo sapiens

>  <standard_units>  (243) 
nM

>  <record_id>  (243) 
292929

>  <document_chembl_id>  (243) 
CHEMBL1135401

>  <bao_format>  (243) 
BAO_0000357

>  <data_validity_description>  (243) 
None

>  <activity_id>  (243) 
896653

>  <standard_type>  (243) 
IC50

>  <target_chembl_id>  (243) 
CHEMBL202

>  <data_validity_comment>  (243) 
None

>  <published_value>  (243) 
69

>  <document_year>  (243) 
2002

>  <target_pref_name>  (243) 
Dihydrofolate reductase

>  <assay_chembl_id>  (243) 
CHEMBL669986

>  <standard_relation>  (243) 
=

>  <assay_description>  (243) 
Antimycobacterial activity against human dihydrofolate reductase (hDHFR)

>  <published_relation>  (243) 
=

>  <standard_value>  (243) 
69

>  <qudt_units>  (243) 
http://www.openphacts.org/units/Nanomolar

>  <target_tax_id>  (243) 
9606

>  <bao_label>  (243) 
single protein format

>  <published_units>  (243) 
nM

>  <pchembl_value>  (243) 
7.16

>  <published_type>  (243) 
IC50

>  <activity_comment>  (243) 
None

$$$$

     RDKit          

 31 33  0  0  0  0  0  0  0  0999 V2000
    0.0000    0.0000    0.0000 O   0  0  0  0  0  0  0  0  0  0  0  0
    0.0000    0.0000    0.0000 C   0  0  0  0  0  0  0  0  0  0  0  0
    0.0000    0.0000    0.0000 N   0  0  0  0  0  0  0  0  0  0  0  0
    0.0000    0.0000    0.0000 C   0  0  0  0  0  0  0  0  0  0  0  0
    0.0000    0.0000    0.0000 C   0  0  0  0  0  0  0  0  0  0  0  0
    0.0000    0.0000    0.0000 C   0  0  0  0  0  0  0  0  0  0  0  0
    0.0000    0.0000    0.0000 C   0  0  0  0  0  0  0  0  0  0  0  0
    0.0000    0.0000    0.0000 C   0  0  0  0  0  0  0  0  0  0  0  0
    0.0000    0.0000    0.0000 N   0  0  0  0  0  0  0  0  0  0  0  0
    0.0000    0.0000    0.0000 N   0  0  0  0  0  0  0  0  0  0  0  0
    0.0000    0.0000    0.0000 C   0  0  0  0  0  0  0  0  0  0  0  0
    0.0000    0.0000    0.0000 C   0  0  0  0  0  0  0  0  0  0  0  0
    0.0000    0.0000    0.0000 C   0  0  0  0  0  0  0  0  0  0  0  0
    0.0000    0.0000    0.0000 C   0  0  0  0  0  0  0  0  0  0  0  0
    0.0000    0.0000    0.0000 C   0  0  0  0  0  0  0  0  0  0  0  0
    0.0000    0.0000    0.0000 C   0  0  0  0  0  0  0  0  0  0  0  0
    0.0000    0.0000    0.0000 C   0  0  0  0  0  0  0  0  0  0  0  0
    0.0000    0.0000    0.0000 C   0  0  0  0  0  0  0  0  0  0  0  0
    0.0000    0.0000    0.0000 C   0  0  0  0  0  0  0  0  0  0  0  0
    0.0000    0.0000    0.0000 C   0  0  0  0  0  0  0  0  0  0  0  0
    0.0000    0.0000    0.0000 N   0  0  0  0  0  0  0  0  0  0  0  0
    0.0000    0.0000    0.0000 O   0  0  0  0  0  0  0  0  0  0  0  0
    0.0000    0.0000    0.0000 C   0  0  0  0  0  0  0  0  0  0  0  0
    0.0000    0.0000    0.0000 C   0  0  0  0  0  0  0  0  0  0  0  0
    0.0000    0.0000    0.0000 C   0  0  0  0  0  0  0  0  0  0  0  0
    0.0000    0.0000    0.0000 C   0  0  0  0  0  0  0  0  0  0  0  0
    0.0000    0.0000    0.0000 O   0  0  0  0  0  0  0  0  0  0  0  0
    0.0000    0.0000    0.0000 O   0  0  0  0  0  0  0  0  0  0  0  0
    0.0000    0.0000    0.0000 C   0  0  0  0  0  0  0  0  0  0  0  0
    0.0000    0.0000    0.0000 O   0  0  0  0  0  0  0  0  0  0  0  0
    0.0000    0.0000    0.0000 O   0  0  0  0  0  0  0  0  0  0  0  0
  1  2  2  0
  2  3  1  0
  2  4  1  0
  4  5  2  0
  4  6  1  0
  5  7  1  0
  8  6  2  0
  6  9  1  0
 10  7  1  0
  7 11  2  0
 11  8  1  0
  9 12  2  0
 13 10  1  0
 12  3  1  0
 14 13  1  0
 15 14  2  0
 14 16  1  0
 17 15  1  0
 16 18  2  0
 19 17  2  0
 18 19  1  0
 20 19  1  0
 21 20  1  0
 20 22  2  0
 23 21  1  0
 24 23  1  0
 23 25  1  0
 26 24  1  0
 25 27  2  0
 25 28  1  0
 29 26  1  0
 30 29  1  0
 29 31  2  0
M  END
>  <pIC50>  (244) 
6.5

>  <ChEMBL_ID>  (244) 
CHEMBL169376

>  <document_journal>  (244) 
J. Med. Chem.

>  <bao_endpoint>  (244) 
BAO_0000190

>  <potential_duplicate>  (244) 
False

>  <uo_units>  (244) 
UO_0000065

>  <canonical_smiles>  (244) 
OC(=O)CCC(NC(=O)c1ccc(CNc2ccc3ncnc(O)c3c2)cc1)C(=O)O

>  <parent_molecule_chembl_id>  (244) 
CHEMBL169376

>  <assay_type>  (244) 
B

>  <src_id>  (244) 
1

>  <ligand_efficiency>  (244) 
{u'le': u'0.29', u'bei': u'15.3', u'sei': u'4.02', u'lle': u'4.54'}

>  <standard_flag>  (244) 
True

>  <molecule_chembl_id>  (244) 
CHEMBL169376

>  <target_organism>  (244) 
Homo sapiens

>  <standard_units>  (244) 
nM

>  <record_id>  (244) 
333543

>  <document_chembl_id>  (244) 
CHEMBL1124448

>  <bao_format>  (244) 
BAO_0000357

>  <data_validity_description>  (244) 
None

>  <activity_id>  (244) 
896765

>  <standard_type>  (244) 
IC50

>  <target_chembl_id>  (244) 
CHEMBL202

>  <data_validity_comment>  (244) 
None

>  <published_value>  (244) 
0.32

>  <document_year>  (244) 
1989

>  <target_pref_name>  (244) 
Dihydrofolate reductase

>  <assay_chembl_id>  (244) 
CHEMBL669444

>  <standard_relation>  (244) 
=

>  <assay_description>  (244) 
Inhibition of human WIL2/dihydrofolate reductase activity

>  <published_relation>  (244) 
=

>  <standard_value>  (244) 
320

>  <qudt_units>  (244) 
http://www.openphacts.org/units/Nanomolar

>  <target_tax_id>  (244) 
9606

>  <bao_label>  (244) 
single protein format

>  <published_units>  (244) 
uM

>  <pchembl_value>  (244) 
6.5

>  <published_type>  (244) 
I50

>  <activity_comment>  (244) 
None

$$$$

     RDKit          

 22 24  0  0  0  0  0  0  0  0999 V2000
    0.0000    0.0000    0.0000 C   0  0  0  0  0  0  0  0  0  0  0  0
    0.0000    0.0000    0.0000 C   0  0  0  0  0  0  0  0  0  0  0  0
    0.0000    0.0000    0.0000 C   0  0  0  0  0  0  0  0  0  0  0  0
    0.0000    0.0000    0.0000 C   0  0  0  0  0  0  0  0  0  0  0  0
    0.0000    0.0000    0.0000 N   0  0  0  0  0  0  0  0  0  0  0  0
    0.0000    0.0000    0.0000 C   0  0  0  0  0  0  0  0  0  0  0  0
    0.0000    0.0000    0.0000 C   0  0  0  0  0  0  0  0  0  0  0  0
    0.0000    0.0000    0.0000 C   0  0  0  0  0  0  0  0  0  0  0  0
    0.0000    0.0000    0.0000 C   0  0  0  0  0  0  0  0  0  0  0  0
    0.0000    0.0000    0.0000 C   0  0  0  0  0  0  0  0  0  0  0  0
    0.0000    0.0000    0.0000 Cl  0  0  0  0  0  0  0  0  0  0  0  0
    0.0000    0.0000    0.0000 C   0  0  0  0  0  0  0  0  0  0  0  0
    0.0000    0.0000    0.0000 C   0  0  0  0  0  0  0  0  0  0  0  0
    0.0000    0.0000    0.0000 N   0  0  0  0  0  0  0  0  0  0  0  0
    0.0000    0.0000    0.0000 C   0  0  0  0  0  0  0  0  0  0  0  0
    0.0000    0.0000    0.0000 N   0  0  0  0  0  0  0  0  0  0  0  0
    0.0000    0.0000    0.0000 C   0  0  0  0  0  0  0  0  0  0  0  0
    0.0000    0.0000    0.0000 N   0  0  0  0  0  0  0  0  0  0  0  0
    0.0000    0.0000    0.0000 N   0  0  0  0  0  0  0  0  0  0  0  0
    0.0000    0.0000    0.0000 C   0  0  0  0  0  0  0  0  0  0  0  0
    0.0000    0.0000    0.0000 N   0  0  0  0  0  0  0  0  0  0  0  0
    0.0000    0.0000    0.0000 C   0  0  0  0  0  0  0  0  0  0  0  0
  1  2  1  0
  2  3  2  0
  3  4  1  0
  4  5  1  0
  5  6  1  0
  6  7  2  0
  7  8  1  0
  8  9  2  0
  9 10  1  0
 10 11  1  0
 10 12  2  0
  3 13  1  0
 13 14  2  0
 14 15  1  0
 15 16  2  0
 16 17  1  0
 17 18  1  0
 17 19  2  0
 19 20  1  0
 20 21  1  0
 20 22  2  0
 22  2  1  0
 12  6  1  0
 22 15  1  0
M  END
>  <pIC50>  (245) 
7.77

>  <ChEMBL_ID>  (245) 
CHEMBL80066

>  <document_journal>  (245) 
J. Med. Chem.

>  <bao_endpoint>  (245) 
BAO_0000190

>  <potential_duplicate>  (245) 
False

>  <uo_units>  (245) 
UO_0000065

>  <canonical_smiles>  (245) 
Cc1c(CNc2cccc(Cl)c2)cnc3nc(N)nc(N)c13

>  <parent_molecule_chembl_id>  (245) 
CHEMBL80066

>  <assay_type>  (245) 
B

>  <src_id>  (245) 
1

>  <ligand_efficiency>  (245) 
{u'le': u'0.48', u'bei': u'24.68', u'sei': u'7.56', u'lle': u'5.23'}

>  <standard_flag>  (245) 
True

>  <molecule_chembl_id>  (245) 
CHEMBL80066

>  <target_organism>  (245) 
Homo sapiens

>  <standard_units>  (245) 
nM

>  <record_id>  (245) 
292938

>  <document_chembl_id>  (245) 
CHEMBL1135401

>  <bao_format>  (245) 
BAO_0000357

>  <data_validity_description>  (245) 
None

>  <activity_id>  (245) 
897789

>  <standard_type>  (245) 
IC50

>  <target_chembl_id>  (245) 
CHEMBL202

>  <data_validity_comment>  (245) 
None

>  <published_value>  (245) 
17

>  <document_year>  (245) 
2002

>  <target_pref_name>  (245) 
Dihydrofolate reductase

>  <assay_chembl_id>  (245) 
CHEMBL669986

>  <standard_relation>  (245) 
=

>  <assay_description>  (245) 
Antimycobacterial activity against human dihydrofolate reductase (hDHFR)

>  <published_relation>  (245) 
=

>  <standard_value>  (245) 
17

>  <qudt_units>  (245) 
http://www.openphacts.org/units/Nanomolar

>  <target_tax_id>  (245) 
9606

>  <bao_label>  (245) 
single protein format

>  <published_units>  (245) 
nM

>  <pchembl_value>  (245) 
7.77

>  <published_type>  (245) 
IC50

>  <activity_comment>  (245) 
None

$$$$

     RDKit          

 25 27  0  0  0  0  0  0  0  0999 V2000
    0.0000    0.0000    0.0000 C   0  0  0  0  0  0  0  0  0  0  0  0
    0.0000    0.0000    0.0000 O   0  0  0  0  0  0  0  0  0  0  0  0
    0.0000    0.0000    0.0000 C   0  0  0  0  0  0  0  0  0  0  0  0
    0.0000    0.0000    0.0000 C   0  0  0  0  0  0  0  0  0  0  0  0
    0.0000    0.0000    0.0000 C   0  0  0  0  0  0  0  0  0  0  0  0
    0.0000    0.0000    0.0000 C   0  0  0  0  0  0  0  0  0  0  0  0
    0.0000    0.0000    0.0000 S   0  0  0  0  0  0  0  0  0  0  0  0
    0.0000    0.0000    0.0000 C   0  0  0  0  0  0  0  0  0  0  0  0
    0.0000    0.0000    0.0000 C   0  0  0  0  0  0  0  0  0  0  0  0
    0.0000    0.0000    0.0000 C   0  0  0  0  0  0  0  0  0  0  0  0
    0.0000    0.0000    0.0000 N   0  0  0  0  0  0  0  0  0  0  0  0
    0.0000    0.0000    0.0000 C   0  0  0  0  0  0  0  0  0  0  0  0
    0.0000    0.0000    0.0000 N   0  0  0  0  0  0  0  0  0  0  0  0
    0.0000    0.0000    0.0000 C   0  0  0  0  0  0  0  0  0  0  0  0
    0.0000    0.0000    0.0000 N   0  0  0  0  0  0  0  0  0  0  0  0
    0.0000    0.0000    0.0000 N   0  0  0  0  0  0  0  0  0  0  0  0
    0.0000    0.0000    0.0000 C   0  0  0  0  0  0  0  0  0  0  0  0
    0.0000    0.0000    0.0000 N   0  0  0  0  0  0  0  0  0  0  0  0
    0.0000    0.0000    0.0000 C   0  0  0  0  0  0  0  0  0  0  0  0
    0.0000    0.0000    0.0000 C   0  0  0  0  0  0  0  0  0  0  0  0
    0.0000    0.0000    0.0000 C   0  0  0  0  0  0  0  0  0  0  0  0
    0.0000    0.0000    0.0000 C   0  0  0  0  0  0  0  0  0  0  0  0
    0.0000    0.0000    0.0000 C   0  0  0  0  0  0  0  0  0  0  0  0
    0.0000    0.0000    0.0000 O   0  0  0  0  0  0  0  0  0  0  0  0
    0.0000    0.0000    0.0000 C   0  0  0  0  0  0  0  0  0  0  0  0
  1  2  1  0
  2  3  1  0
  3  4  2  0
  4  5  1  0
  5  6  2  0
  6  7  1  0
  7  8  1  0
  8  9  1  0
  9 10  2  0
 10 11  1  0
 11 12  2  0
 12 13  1  0
 13 14  2  0
 14 15  1  0
 14 16  1  0
 16 17  2  0
 17 18  1  0
 17 19  1  0
 19 20  2  0
 20 21  1  0
  6 22  1  0
 22 23  2  0
 23 24  1  0
 24 25  1  0
 23  3  1  0
 20  9  1  0
 19 12  1  0
M  END
>  <pIC50>  (246) 
6.36

>  <ChEMBL_ID>  (246) 
CHEMBL23244

>  <document_journal>  (246) 
J. Med. Chem.

>  <bao_endpoint>  (246) 
BAO_0000190

>  <potential_duplicate>  (246) 
False

>  <uo_units>  (246) 
UO_0000065

>  <canonical_smiles>  (246) 
COc1ccc(SCc2cnc3nc(N)nc(N)c3c2C)cc1OC

>  <parent_molecule_chembl_id>  (246) 
CHEMBL23244

>  <assay_type>  (246) 
B

>  <src_id>  (246) 
1

>  <ligand_efficiency>  (246) 
{u'le': u'0.35', u'bei': u'17.78', u'sei': u'4.73', u'lle': u'3.78'}

>  <standard_flag>  (246) 
True

>  <molecule_chembl_id>  (246) 
CHEMBL23244

>  <target_organism>  (246) 
Homo sapiens

>  <standard_units>  (246) 
nM

>  <record_id>  (246) 
292873

>  <document_chembl_id>  (246) 
CHEMBL1135401

>  <bao_format>  (246) 
BAO_0000357

>  <data_validity_description>  (246) 
None

>  <activity_id>  (246) 
897840

>  <standard_type>  (246) 
IC50

>  <target_chembl_id>  (246) 
CHEMBL202

>  <data_validity_comment>  (246) 
None

>  <published_value>  (246) 
440

>  <document_year>  (246) 
2002

>  <target_pref_name>  (246) 
Dihydrofolate reductase

>  <assay_chembl_id>  (246) 
CHEMBL669986

>  <standard_relation>  (246) 
=

>  <assay_description>  (246) 
Antimycobacterial activity against human dihydrofolate reductase (hDHFR)

>  <published_relation>  (246) 
=

>  <standard_value>  (246) 
440

>  <qudt_units>  (246) 
http://www.openphacts.org/units/Nanomolar

>  <target_tax_id>  (246) 
9606

>  <bao_label>  (246) 
single protein format

>  <published_units>  (246) 
nM

>  <pchembl_value>  (246) 
6.36

>  <published_type>  (246) 
IC50

>  <activity_comment>  (246) 
None

$$$$

     RDKit          

 26 28  0  0  0  0  0  0  0  0999 V2000
    0.0000    0.0000    0.0000 C   0  0  0  0  0  0  0  0  0  0  0  0
    0.0000    0.0000    0.0000 C   0  0  0  0  0  0  0  0  0  0  0  0
    0.0000    0.0000    0.0000 C   0  0  0  0  0  0  0  0  0  0  0  0
    0.0000    0.0000    0.0000 C   0  0  0  0  0  0  0  0  0  0  0  0
    0.0000    0.0000    0.0000 N   0  0  0  0  0  0  0  0  0  0  0  0
    0.0000    0.0000    0.0000 C   0  0  0  0  0  0  0  0  0  0  0  0
    0.0000    0.0000    0.0000 O   0  0  0  0  0  0  0  0  0  0  0  0
    0.0000    0.0000    0.0000 C   0  0  0  0  0  0  0  0  0  0  0  0
    0.0000    0.0000    0.0000 C   0  0  0  0  0  0  0  0  0  0  0  0
    0.0000    0.0000    0.0000 C   0  0  0  0  0  0  0  0  0  0  0  0
    0.0000    0.0000    0.0000 Cl  0  0  0  0  0  0  0  0  0  0  0  0
    0.0000    0.0000    0.0000 C   0  0  0  0  0  0  0  0  0  0  0  0
    0.0000    0.0000    0.0000 Cl  0  0  0  0  0  0  0  0  0  0  0  0
    0.0000    0.0000    0.0000 C   0  0  0  0  0  0  0  0  0  0  0  0
    0.0000    0.0000    0.0000 Cl  0  0  0  0  0  0  0  0  0  0  0  0
    0.0000    0.0000    0.0000 C   0  0  0  0  0  0  0  0  0  0  0  0
    0.0000    0.0000    0.0000 C   0  0  0  0  0  0  0  0  0  0  0  0
    0.0000    0.0000    0.0000 N   0  0  0  0  0  0  0  0  0  0  0  0
    0.0000    0.0000    0.0000 C   0  0  0  0  0  0  0  0  0  0  0  0
    0.0000    0.0000    0.0000 N   0  0  0  0  0  0  0  0  0  0  0  0
    0.0000    0.0000    0.0000 C   0  0  0  0  0  0  0  0  0  0  0  0
    0.0000    0.0000    0.0000 N   0  0  0  0  0  0  0  0  0  0  0  0
    0.0000    0.0000    0.0000 N   0  0  0  0  0  0  0  0  0  0  0  0
    0.0000    0.0000    0.0000 C   0  0  0  0  0  0  0  0  0  0  0  0
    0.0000    0.0000    0.0000 N   0  0  0  0  0  0  0  0  0  0  0  0
    0.0000    0.0000    0.0000 C   0  0  0  0  0  0  0  0  0  0  0  0
  1  2  1  0
  2  3  2  0
  3  4  1  0
  4  5  1  0
  5  6  1  0
  6  7  2  0
  5  8  1  0
  8  9  2  0
  9 10  1  0
 10 11  1  0
 10 12  2  0
 12 13  1  0
 12 14  1  0
 14 15  1  0
 14 16  2  0
  3 17  1  0
 17 18  2  0
 18 19  1  0
 19 20  2  0
 20 21  1  0
 21 22  1  0
 21 23  2  0
 23 24  1  0
 24 25  1  0
 24 26  2  0
 26  2  1  0
 16  8  1  0
 26 19  1  0
M  END
>  <pIC50>  (247) 
4.74

>  <ChEMBL_ID>  (247) 
CHEMBL334271

>  <document_journal>  (247) 
J. Med. Chem.

>  <bao_endpoint>  (247) 
BAO_0000190

>  <potential_duplicate>  (247) 
False

>  <uo_units>  (247) 
UO_0000065

>  <canonical_smiles>  (247) 
Cc1c(CN(C=O)c2cc(Cl)c(Cl)c(Cl)c2)cnc3nc(N)nc(N)c13

>  <parent_molecule_chembl_id>  (247) 
CHEMBL334271

>  <assay_type>  (247) 
F

>  <src_id>  (247) 
1

>  <ligand_efficiency>  (247) 
None

>  <standard_flag>  (247) 
True

>  <molecule_chembl_id>  (247) 
CHEMBL334271

>  <target_organism>  (247) 
Homo sapiens

>  <standard_units>  (247) 
nM

>  <record_id>  (247) 
218793

>  <document_chembl_id>  (247) 
CHEMBL1126886

>  <bao_format>  (247) 
BAO_0000219

>  <data_validity_description>  (247) 
None

>  <activity_id>  (247) 
898693

>  <standard_type>  (247) 
IC50

>  <target_chembl_id>  (247) 
CHEMBL202

>  <data_validity_comment>  (247) 
None

>  <published_value>  (247) 
18.2

>  <document_year>  (247) 
1993

>  <target_pref_name>  (247) 
Dihydrofolate reductase

>  <assay_chembl_id>  (247) 
CHEMBL710926

>  <standard_relation>  (247) 
=

>  <assay_description>  (247) 
Inhibitory concentration required to decrease cell viability in cell growth culture against breast carcinoma cells MCF-7

>  <published_relation>  (247) 
=

>  <standard_value>  (247) 
18200

>  <qudt_units>  (247) 
http://www.openphacts.org/units/Nanomolar

>  <target_tax_id>  (247) 
9606

>  <bao_label>  (247) 
cell-based format

>  <published_units>  (247) 
uM

>  <pchembl_value>  (247) 
4.74

>  <published_type>  (247) 
IC50

>  <activity_comment>  (247) 
None

$$$$

     RDKit          

 23 25  0  0  0  0  0  0  0  0999 V2000
    0.0000    0.0000    0.0000 C   0  0  0  0  0  0  0  0  0  0  0  0
    0.0000    0.0000    0.0000 C   0  0  0  0  0  0  0  0  0  0  0  0
    0.0000    0.0000    0.0000 C   0  0  0  0  0  0  0  0  0  0  0  0
    0.0000    0.0000    0.0000 C   0  0  0  0  0  0  0  0  0  0  0  0
    0.0000    0.0000    0.0000 C   0  0  0  0  0  0  0  0  0  0  0  0
    0.0000    0.0000    0.0000 Cl  0  0  0  0  0  0  0  0  0  0  0  0
    0.0000    0.0000    0.0000 C   0  0  0  0  0  0  0  0  0  0  0  0
    0.0000    0.0000    0.0000 N   0  0  0  0  0  0  0  0  0  0  0  0
    0.0000    0.0000    0.0000 C   0  0  0  0  0  0  0  0  0  0  0  0
    0.0000    0.0000    0.0000 C   0  0  0  0  0  0  0  0  0  0  0  0
    0.0000    0.0000    0.0000 C   0  0  0  0  0  0  0  0  0  0  0  0
    0.0000    0.0000    0.0000 N   0  0  0  0  0  0  0  0  0  0  0  0
    0.0000    0.0000    0.0000 C   0  0  0  0  0  0  0  0  0  0  0  0
    0.0000    0.0000    0.0000 N   0  0  0  0  0  0  0  0  0  0  0  0
    0.0000    0.0000    0.0000 C   0  0  0  0  0  0  0  0  0  0  0  0
    0.0000    0.0000    0.0000 N   0  0  0  0  0  0  0  0  0  0  0  0
    0.0000    0.0000    0.0000 N   0  0  0  0  0  0  0  0  0  0  0  0
    0.0000    0.0000    0.0000 C   0  0  0  0  0  0  0  0  0  0  0  0
    0.0000    0.0000    0.0000 N   0  0  0  0  0  0  0  0  0  0  0  0
    0.0000    0.0000    0.0000 C   0  0  0  0  0  0  0  0  0  0  0  0
    0.0000    0.0000    0.0000 C   0  0  0  0  0  0  0  0  0  0  0  0
    0.0000    0.0000    0.0000 C   0  0  0  0  0  0  0  0  0  0  0  0
    0.0000    0.0000    0.0000 C   0  0  0  0  0  0  0  0  0  0  0  0
  1  2  1  0
  2  3  2  0
  3  4  1  0
  4  5  2  0
  5  6  1  0
  5  7  1  0
  7  8  1  0
  8  9  1  0
  9 10  1  0
 10 11  2  0
 11 12  1  0
 12 13  2  0
 13 14  1  0
 14 15  2  0
 15 16  1  0
 15 17  1  0
 17 18  2  0
 18 19  1  0
 18 20  1  0
 20 21  2  0
 21 22  1  0
  7 23  2  0
 23  2  1  0
 21 10  1  0
 20 13  1  0
M  END
>  <pIC50>  (248) 
7.36

>  <ChEMBL_ID>  (248) 
CHEMBL149273

>  <document_journal>  (248) 
J. Med. Chem.

>  <bao_endpoint>  (248) 
BAO_0000190

>  <potential_duplicate>  (248) 
False

>  <uo_units>  (248) 
UO_0000065

>  <canonical_smiles>  (248) 
Cc1ccc(Cl)c(NCc2cnc3nc(N)nc(N)c3c2C)c1

>  <parent_molecule_chembl_id>  (248) 
CHEMBL149273

>  <assay_type>  (248) 
B

>  <src_id>  (248) 
1

>  <ligand_efficiency>  (248) 
{u'le': u'0.44', u'bei': u'22.37', u'sei': u'7.16', u'lle': u'4.33'}

>  <standard_flag>  (248) 
True

>  <molecule_chembl_id>  (248) 
CHEMBL149273

>  <target_organism>  (248) 
Homo sapiens

>  <standard_units>  (248) 
nM

>  <record_id>  (248) 
292926

>  <document_chembl_id>  (248) 
CHEMBL1135401

>  <bao_format>  (248) 
BAO_0000357

>  <data_validity_description>  (248) 
None

>  <activity_id>  (248) 
899088

>  <standard_type>  (248) 
IC50

>  <target_chembl_id>  (248) 
CHEMBL202

>  <data_validity_comment>  (248) 
None

>  <published_value>  (248) 
44

>  <document_year>  (248) 
2002

>  <target_pref_name>  (248) 
Dihydrofolate reductase

>  <assay_chembl_id>  (248) 
CHEMBL669986

>  <standard_relation>  (248) 
=

>  <assay_description>  (248) 
Antimycobacterial activity against human dihydrofolate reductase (hDHFR)

>  <published_relation>  (248) 
=

>  <standard_value>  (248) 
44

>  <qudt_units>  (248) 
http://www.openphacts.org/units/Nanomolar

>  <target_tax_id>  (248) 
9606

>  <bao_label>  (248) 
single protein format

>  <published_units>  (248) 
nM

>  <pchembl_value>  (248) 
7.36

>  <published_type>  (248) 
IC50

>  <activity_comment>  (248) 
None

$$$$

     RDKit          

 27 29  0  0  0  0  0  0  0  0999 V2000
    0.0000    0.0000    0.0000 C   0  0  0  0  0  0  0  0  0  0  0  0
    0.0000    0.0000    0.0000 O   0  0  0  0  0  0  0  0  0  0  0  0
    0.0000    0.0000    0.0000 C   0  0  0  0  0  0  0  0  0  0  0  0
    0.0000    0.0000    0.0000 C   0  0  0  0  0  0  0  0  0  0  0  0
    0.0000    0.0000    0.0000 C   0  0  0  0  0  0  0  0  0  0  0  0
    0.0000    0.0000    0.0000 C   0  0  0  0  0  0  0  0  0  0  0  0
    0.0000    0.0000    0.0000 N   0  0  0  0  0  0  0  0  0  0  0  0
    0.0000    0.0000    0.0000 C   0  0  0  0  0  0  0  0  0  0  0  0
    0.0000    0.0000    0.0000 C   0  0  0  0  0  0  0  0  0  0  0  0
    0.0000    0.0000    0.0000 C   0  0  0  0  0  0  0  0  0  0  0  0
    0.0000    0.0000    0.0000 O   0  0  0  0  0  0  0  0  0  0  0  0
    0.0000    0.0000    0.0000 C   0  0  0  0  0  0  0  0  0  0  0  0
    0.0000    0.0000    0.0000 C   0  0  0  0  0  0  0  0  0  0  0  0
    0.0000    0.0000    0.0000 C   0  0  0  0  0  0  0  0  0  0  0  0
    0.0000    0.0000    0.0000 C   0  0  0  0  0  0  0  0  0  0  0  0
    0.0000    0.0000    0.0000 O   0  0  0  0  0  0  0  0  0  0  0  0
    0.0000    0.0000    0.0000 C   0  0  0  0  0  0  0  0  0  0  0  0
    0.0000    0.0000    0.0000 C   0  0  0  0  0  0  0  0  0  0  0  0
    0.0000    0.0000    0.0000 N   0  0  0  0  0  0  0  0  0  0  0  0
    0.0000    0.0000    0.0000 C   0  0  0  0  0  0  0  0  0  0  0  0
    0.0000    0.0000    0.0000 N   0  0  0  0  0  0  0  0  0  0  0  0
    0.0000    0.0000    0.0000 C   0  0  0  0  0  0  0  0  0  0  0  0
    0.0000    0.0000    0.0000 N   0  0  0  0  0  0  0  0  0  0  0  0
    0.0000    0.0000    0.0000 N   0  0  0  0  0  0  0  0  0  0  0  0
    0.0000    0.0000    0.0000 C   0  0  0  0  0  0  0  0  0  0  0  0
    0.0000    0.0000    0.0000 N   0  0  0  0  0  0  0  0  0  0  0  0
    0.0000    0.0000    0.0000 C   0  0  0  0  0  0  0  0  0  0  0  0
  1  2  1  0
  2  3  1  0
  3  4  1  0
  4  5  2  0
  5  6  1  0
  6  7  1  0
  7  8  1  0
  8  9  2  0
  9 10  1  0
 10 11  1  0
 11 12  1  0
 10 13  2  0
 13 14  1  0
 14 15  2  0
 15 16  1  0
 16 17  1  0
  5 18  1  0
 18 19  2  0
 19 20  1  0
 20 21  2  0
 21 22  1  0
 22 23  1  0
 22 24  2  0
 24 25  1  0
 25 26  1  0
 25 27  2  0
 27  4  1  0
 15  8  1  0
 27 20  1  0
M  END
>  <pIC50>  (249) 
4.51

>  <ChEMBL_ID>  (249) 
CHEMBL150835

>  <document_journal>  (249) 
J. Med. Chem.

>  <bao_endpoint>  (249) 
BAO_0000190

>  <potential_duplicate>  (249) 
False

>  <uo_units>  (249) 
UO_0000065

>  <canonical_smiles>  (249) 
COCc1c(CNc2cc(OC)ccc2OC)cnc3nc(N)nc(N)c13

>  <parent_molecule_chembl_id>  (249) 
CHEMBL150835

>  <assay_type>  (249) 
B

>  <src_id>  (249) 
1

>  <ligand_efficiency>  (249) 
{u'le': u'0.23', u'bei': u'12.17', u'sei': u'3.46', u'lle': u'3.35'}

>  <standard_flag>  (249) 
True

>  <molecule_chembl_id>  (249) 
CHEMBL150835

>  <target_organism>  (249) 
Homo sapiens

>  <standard_units>  (249) 
nM

>  <record_id>  (249) 
292923

>  <document_chembl_id>  (249) 
CHEMBL1135401

>  <bao_format>  (249) 
BAO_0000357

>  <data_validity_description>  (249) 
None

>  <activity_id>  (249) 
900213

>  <standard_type>  (249) 
IC50

>  <target_chembl_id>  (249) 
CHEMBL202

>  <data_validity_comment>  (249) 
None

>  <published_value>  (249) 
31000

>  <document_year>  (249) 
2002

>  <target_pref_name>  (249) 
Dihydrofolate reductase

>  <assay_chembl_id>  (249) 
CHEMBL669986

>  <standard_relation>  (249) 
=

>  <assay_description>  (249) 
Antimycobacterial activity against human dihydrofolate reductase (hDHFR)

>  <published_relation>  (249) 
=

>  <standard_value>  (249) 
31000

>  <qudt_units>  (249) 
http://www.openphacts.org/units/Nanomolar

>  <target_tax_id>  (249) 
9606

>  <bao_label>  (249) 
single protein format

>  <published_units>  (249) 
nM

>  <pchembl_value>  (249) 
4.51

>  <published_type>  (249) 
IC50

>  <activity_comment>  (249) 
None

$$$$

     RDKit          

 23 25  0  0  0  0  0  0  0  0999 V2000
    0.0000    0.0000    0.0000 C   0  0  0  0  0  0  0  0  0  0  0  0
    0.0000    0.0000    0.0000 O   0  0  0  0  0  0  0  0  0  0  0  0
    0.0000    0.0000    0.0000 C   0  0  0  0  0  0  0  0  0  0  0  0
    0.0000    0.0000    0.0000 C   0  0  0  0  0  0  0  0  0  0  0  0
    0.0000    0.0000    0.0000 C   0  0  0  0  0  0  0  0  0  0  0  0
    0.0000    0.0000    0.0000 C   0  0  0  0  0  0  0  0  0  0  0  0
    0.0000    0.0000    0.0000 C   0  0  0  0  0  0  0  0  0  0  0  0
    0.0000    0.0000    0.0000 S   0  0  0  0  0  0  0  0  0  0  0  0
    0.0000    0.0000    0.0000 C   0  0  0  0  0  0  0  0  0  0  0  0
    0.0000    0.0000    0.0000 C   0  0  0  0  0  0  0  0  0  0  0  0
    0.0000    0.0000    0.0000 C   0  0  0  0  0  0  0  0  0  0  0  0
    0.0000    0.0000    0.0000 N   0  0  0  0  0  0  0  0  0  0  0  0
    0.0000    0.0000    0.0000 C   0  0  0  0  0  0  0  0  0  0  0  0
    0.0000    0.0000    0.0000 N   0  0  0  0  0  0  0  0  0  0  0  0
    0.0000    0.0000    0.0000 C   0  0  0  0  0  0  0  0  0  0  0  0
    0.0000    0.0000    0.0000 N   0  0  0  0  0  0  0  0  0  0  0  0
    0.0000    0.0000    0.0000 N   0  0  0  0  0  0  0  0  0  0  0  0
    0.0000    0.0000    0.0000 C   0  0  0  0  0  0  0  0  0  0  0  0
    0.0000    0.0000    0.0000 N   0  0  0  0  0  0  0  0  0  0  0  0
    0.0000    0.0000    0.0000 C   0  0  0  0  0  0  0  0  0  0  0  0
    0.0000    0.0000    0.0000 C   0  0  0  0  0  0  0  0  0  0  0  0
    0.0000    0.0000    0.0000 C   0  0  0  0  0  0  0  0  0  0  0  0
    0.0000    0.0000    0.0000 C   0  0  0  0  0  0  0  0  0  0  0  0
  1  2  1  0
  2  3  1  0
  3  4  2  0
  4  5  1  0
  5  6  2  0
  6  7  1  0
  7  8  1  0
  8  9  1  0
  9 10  1  0
 10 11  2  0
 11 12  1  0
 12 13  2  0
 13 14  1  0
 14 15  2  0
 15 16  1  0
 15 17  1  0
 17 18  2  0
 18 19  1  0
 18 20  1  0
 20 21  2  0
 21 22  1  0
  7 23  2  0
 23  3  1  0
 21 10  1  0
 20 13  1  0
M  END
>  <pIC50>  (250) 
6.3

>  <ChEMBL_ID>  (250) 
CHEMBL277217

>  <document_journal>  (250) 
J. Med. Chem.

>  <bao_endpoint>  (250) 
BAO_0000190

>  <potential_duplicate>  (250) 
False

>  <uo_units>  (250) 
UO_0000065

>  <canonical_smiles>  (250) 
COc1cccc(SCc2cnc3nc(N)nc(N)c3c2C)c1

>  <parent_molecule_chembl_id>  (250) 
CHEMBL277217

>  <assay_type>  (250) 
B

>  <src_id>  (250) 
1

>  <ligand_efficiency>  (250) 
{u'le': u'0.37', u'bei': u'19.25', u'sei': u'5.03', u'lle': u'3.7'}

>  <standard_flag>  (250) 
True

>  <molecule_chembl_id>  (250) 
CHEMBL277217

>  <target_organism>  (250) 
Homo sapiens

>  <standard_units>  (250) 
nM

>  <record_id>  (250) 
292910

>  <document_chembl_id>  (250) 
CHEMBL1135401

>  <bao_format>  (250) 
BAO_0000357

>  <data_validity_description>  (250) 
None

>  <activity_id>  (250) 
900217

>  <standard_type>  (250) 
IC50

>  <target_chembl_id>  (250) 
CHEMBL202

>  <data_validity_comment>  (250) 
None

>  <published_value>  (250) 
500

>  <document_year>  (250) 
2002

>  <target_pref_name>  (250) 
Dihydrofolate reductase

>  <assay_chembl_id>  (250) 
CHEMBL669986

>  <standard_relation>  (250) 
=

>  <assay_description>  (250) 
Antimycobacterial activity against human dihydrofolate reductase (hDHFR)

>  <published_relation>  (250) 
=

>  <standard_value>  (250) 
500

>  <qudt_units>  (250) 
http://www.openphacts.org/units/Nanomolar

>  <target_tax_id>  (250) 
9606

>  <bao_label>  (250) 
single protein format

>  <published_units>  (250) 
nM

>  <pchembl_value>  (250) 
6.3

>  <published_type>  (250) 
IC50

>  <activity_comment>  (250) 
None

$$$$

     RDKit          

 25 27  0  0  0  0  0  0  0  0999 V2000
    0.0000    0.0000    0.0000 C   0  0  0  0  0  0  0  0  0  0  0  0
    0.0000    0.0000    0.0000 O   0  0  0  0  0  0  0  0  0  0  0  0
    0.0000    0.0000    0.0000 C   0  0  0  0  0  0  0  0  0  0  0  0
    0.0000    0.0000    0.0000 C   0  0  0  0  0  0  0  0  0  0  0  0
    0.0000    0.0000    0.0000 C   0  0  0  0  0  0  0  0  0  0  0  0
    0.0000    0.0000    0.0000 C   0  0  0  0  0  0  0  0  0  0  0  0
    0.0000    0.0000    0.0000 O   0  0  0  0  0  0  0  0  0  0  0  0
    0.0000    0.0000    0.0000 C   0  0  0  0  0  0  0  0  0  0  0  0
    0.0000    0.0000    0.0000 C   0  0  0  0  0  0  0  0  0  0  0  0
    0.0000    0.0000    0.0000 S   0  0  0  0  0  0  0  0  0  0  0  0
    0.0000    0.0000    0.0000 C   0  0  0  0  0  0  0  0  0  0  0  0
    0.0000    0.0000    0.0000 C   0  0  0  0  0  0  0  0  0  0  0  0
    0.0000    0.0000    0.0000 C   0  0  0  0  0  0  0  0  0  0  0  0
    0.0000    0.0000    0.0000 N   0  0  0  0  0  0  0  0  0  0  0  0
    0.0000    0.0000    0.0000 C   0  0  0  0  0  0  0  0  0  0  0  0
    0.0000    0.0000    0.0000 N   0  0  0  0  0  0  0  0  0  0  0  0
    0.0000    0.0000    0.0000 C   0  0  0  0  0  0  0  0  0  0  0  0
    0.0000    0.0000    0.0000 N   0  0  0  0  0  0  0  0  0  0  0  0
    0.0000    0.0000    0.0000 N   0  0  0  0  0  0  0  0  0  0  0  0
    0.0000    0.0000    0.0000 C   0  0  0  0  0  0  0  0  0  0  0  0
    0.0000    0.0000    0.0000 N   0  0  0  0  0  0  0  0  0  0  0  0
    0.0000    0.0000    0.0000 C   0  0  0  0  0  0  0  0  0  0  0  0
    0.0000    0.0000    0.0000 C   0  0  0  0  0  0  0  0  0  0  0  0
    0.0000    0.0000    0.0000 C   0  0  0  0  0  0  0  0  0  0  0  0
    0.0000    0.0000    0.0000 C   0  0  0  0  0  0  0  0  0  0  0  0
  1  2  1  0
  2  3  1  0
  3  4  2  0
  4  5  1  0
  5  6  2  0
  6  7  1  0
  7  8  1  0
  6  9  1  0
  9 10  1  0
 10 11  1  0
 11 12  1  0
 12 13  2  0
 13 14  1  0
 14 15  2  0
 15 16  1  0
 16 17  2  0
 17 18  1  0
 17 19  1  0
 19 20  2  0
 20 21  1  0
 20 22  1  0
 22 23  2  0
 23 24  1  0
  9 25  2  0
 25  3  1  0
 23 12  1  0
 22 15  1  0
M  END
>  <pIC50>  (251) 
5.6

>  <ChEMBL_ID>  (251) 
CHEMBL150247

>  <document_journal>  (251) 
J. Med. Chem.

>  <bao_endpoint>  (251) 
BAO_0000190

>  <potential_duplicate>  (251) 
False

>  <uo_units>  (251) 
UO_0000065

>  <canonical_smiles>  (251) 
COc1ccc(OC)c(SCc2cnc3nc(N)nc(N)c3c2C)c1

>  <parent_molecule_chembl_id>  (251) 
CHEMBL150247

>  <assay_type>  (251) 
B

>  <src_id>  (251) 
1

>  <ligand_efficiency>  (251) 
{u'le': u'0.31', u'bei': u'15.67', u'sei': u'4.17', u'lle': u'3.02'}

>  <standard_flag>  (251) 
True

>  <molecule_chembl_id>  (251) 
CHEMBL150247

>  <target_organism>  (251) 
Homo sapiens

>  <standard_units>  (251) 
nM

>  <record_id>  (251) 
292908

>  <document_chembl_id>  (251) 
CHEMBL1135401

>  <bao_format>  (251) 
BAO_0000357

>  <data_validity_description>  (251) 
None

>  <activity_id>  (251) 
900221

>  <standard_type>  (251) 
IC50

>  <target_chembl_id>  (251) 
CHEMBL202

>  <data_validity_comment>  (251) 
None

>  <published_value>  (251) 
2500

>  <document_year>  (251) 
2002

>  <target_pref_name>  (251) 
Dihydrofolate reductase

>  <assay_chembl_id>  (251) 
CHEMBL669986

>  <standard_relation>  (251) 
=

>  <assay_description>  (251) 
Antimycobacterial activity against human dihydrofolate reductase (hDHFR)

>  <published_relation>  (251) 
=

>  <standard_value>  (251) 
2500

>  <qudt_units>  (251) 
http://www.openphacts.org/units/Nanomolar

>  <target_tax_id>  (251) 
9606

>  <bao_label>  (251) 
single protein format

>  <published_units>  (251) 
nM

>  <pchembl_value>  (251) 
5.6

>  <published_type>  (251) 
IC50

>  <activity_comment>  (251) 
None

$$$$

     RDKit          

 24 26  0  0  0  0  0  0  0  0999 V2000
    0.0000    0.0000    0.0000 C   0  0  0  0  0  0  0  0  0  0  0  0
    0.0000    0.0000    0.0000 O   0  0  0  0  0  0  0  0  0  0  0  0
    0.0000    0.0000    0.0000 C   0  0  0  0  0  0  0  0  0  0  0  0
    0.0000    0.0000    0.0000 C   0  0  0  0  0  0  0  0  0  0  0  0
    0.0000    0.0000    0.0000 C   0  0  0  0  0  0  0  0  0  0  0  0
    0.0000    0.0000    0.0000 C   0  0  0  0  0  0  0  0  0  0  0  0
    0.0000    0.0000    0.0000 N   0  0  0  0  0  0  0  0  0  0  0  0
    0.0000    0.0000    0.0000 C   0  0  0  0  0  0  0  0  0  0  0  0
    0.0000    0.0000    0.0000 C   0  0  0  0  0  0  0  0  0  0  0  0
    0.0000    0.0000    0.0000 C   0  0  0  0  0  0  0  0  0  0  0  0
    0.0000    0.0000    0.0000 N   0  0  0  0  0  0  0  0  0  0  0  0
    0.0000    0.0000    0.0000 C   0  0  0  0  0  0  0  0  0  0  0  0
    0.0000    0.0000    0.0000 N   0  0  0  0  0  0  0  0  0  0  0  0
    0.0000    0.0000    0.0000 C   0  0  0  0  0  0  0  0  0  0  0  0
    0.0000    0.0000    0.0000 N   0  0  0  0  0  0  0  0  0  0  0  0
    0.0000    0.0000    0.0000 N   0  0  0  0  0  0  0  0  0  0  0  0
    0.0000    0.0000    0.0000 C   0  0  0  0  0  0  0  0  0  0  0  0
    0.0000    0.0000    0.0000 N   0  0  0  0  0  0  0  0  0  0  0  0
    0.0000    0.0000    0.0000 C   0  0  0  0  0  0  0  0  0  0  0  0
    0.0000    0.0000    0.0000 C   0  0  0  0  0  0  0  0  0  0  0  0
    0.0000    0.0000    0.0000 C   0  0  0  0  0  0  0  0  0  0  0  0
    0.0000    0.0000    0.0000 C   0  0  0  0  0  0  0  0  0  0  0  0
    0.0000    0.0000    0.0000 C   0  0  0  0  0  0  0  0  0  0  0  0
    0.0000    0.0000    0.0000 F   0  0  0  0  0  0  0  0  0  0  0  0
  1  2  1  0
  2  3  1  0
  3  4  2  0
  4  5  1  0
  5  6  2  0
  6  7  1  0
  7  8  1  0
  8  9  1  0
  9 10  2  0
 10 11  1  0
 11 12  2  0
 12 13  1  0
 13 14  2  0
 14 15  1  0
 14 16  1  0
 16 17  2  0
 17 18  1  0
 17 19  1  0
 19 20  2  0
 20 21  1  0
  6 22  1  0
 22 23  2  0
 23 24  1  0
 23  3  1  0
 20  9  1  0
 19 12  1  0
M  END
>  <pIC50>  (252) 
7.85

>  <ChEMBL_ID>  (252) 
CHEMBL356620

>  <document_journal>  (252) 
J. Med. Chem.

>  <bao_endpoint>  (252) 
BAO_0000190

>  <potential_duplicate>  (252) 
False

>  <uo_units>  (252) 
UO_0000065

>  <canonical_smiles>  (252) 
COc1ccc(NCc2cnc3nc(N)nc(N)c3c2C)cc1F

>  <parent_molecule_chembl_id>  (252) 
CHEMBL356620

>  <assay_type>  (252) 
B

>  <src_id>  (252) 
1

>  <ligand_efficiency>  (252) 
{u'le': u'0.45', u'bei': u'23.92', u'sei': u'7.01', u'lle': u'5.78'}

>  <standard_flag>  (252) 
True

>  <molecule_chembl_id>  (252) 
CHEMBL356620

>  <target_organism>  (252) 
Homo sapiens

>  <standard_units>  (252) 
nM

>  <record_id>  (252) 
292933

>  <document_chembl_id>  (252) 
CHEMBL1135401

>  <bao_format>  (252) 
BAO_0000357

>  <data_validity_description>  (252) 
None

>  <activity_id>  (252) 
901485

>  <standard_type>  (252) 
IC50

>  <target_chembl_id>  (252) 
CHEMBL202

>  <data_validity_comment>  (252) 
None

>  <published_value>  (252) 
14

>  <document_year>  (252) 
2002

>  <target_pref_name>  (252) 
Dihydrofolate reductase

>  <assay_chembl_id>  (252) 
CHEMBL669986

>  <standard_relation>  (252) 
=

>  <assay_description>  (252) 
Antimycobacterial activity against human dihydrofolate reductase (hDHFR)

>  <published_relation>  (252) 
=

>  <standard_value>  (252) 
14

>  <qudt_units>  (252) 
http://www.openphacts.org/units/Nanomolar

>  <target_tax_id>  (252) 
9606

>  <bao_label>  (252) 
single protein format

>  <published_units>  (252) 
nM

>  <pchembl_value>  (252) 
7.85

>  <published_type>  (252) 
IC50

>  <activity_comment>  (252) 
None

$$$$

     RDKit          

 22 24  0  0  0  0  0  0  0  0999 V2000
    0.0000    0.0000    0.0000 C   0  0  0  0  0  0  0  0  0  0  0  0
    0.0000    0.0000    0.0000 C   0  0  0  0  0  0  0  0  0  0  0  0
    0.0000    0.0000    0.0000 C   0  0  0  0  0  0  0  0  0  0  0  0
    0.0000    0.0000    0.0000 C   0  0  0  0  0  0  0  0  0  0  0  0
    0.0000    0.0000    0.0000 S   0  0  0  0  0  0  0  0  0  0  0  0
    0.0000    0.0000    0.0000 C   0  0  0  0  0  0  0  0  0  0  0  0
    0.0000    0.0000    0.0000 C   0  0  0  0  0  0  0  0  0  0  0  0
    0.0000    0.0000    0.0000 C   0  0  0  0  0  0  0  0  0  0  0  0
    0.0000    0.0000    0.0000 C   0  0  0  0  0  0  0  0  0  0  0  0
    0.0000    0.0000    0.0000 C   0  0  0  0  0  0  0  0  0  0  0  0
    0.0000    0.0000    0.0000 Cl  0  0  0  0  0  0  0  0  0  0  0  0
    0.0000    0.0000    0.0000 C   0  0  0  0  0  0  0  0  0  0  0  0
    0.0000    0.0000    0.0000 C   0  0  0  0  0  0  0  0  0  0  0  0
    0.0000    0.0000    0.0000 N   0  0  0  0  0  0  0  0  0  0  0  0
    0.0000    0.0000    0.0000 C   0  0  0  0  0  0  0  0  0  0  0  0
    0.0000    0.0000    0.0000 N   0  0  0  0  0  0  0  0  0  0  0  0
    0.0000    0.0000    0.0000 C   0  0  0  0  0  0  0  0  0  0  0  0
    0.0000    0.0000    0.0000 N   0  0  0  0  0  0  0  0  0  0  0  0
    0.0000    0.0000    0.0000 N   0  0  0  0  0  0  0  0  0  0  0  0
    0.0000    0.0000    0.0000 C   0  0  0  0  0  0  0  0  0  0  0  0
    0.0000    0.0000    0.0000 N   0  0  0  0  0  0  0  0  0  0  0  0
    0.0000    0.0000    0.0000 C   0  0  0  0  0  0  0  0  0  0  0  0
  1  2  1  0
  2  3  2  0
  3  4  1  0
  4  5  1  0
  5  6  1  0
  6  7  2  0
  7  8  1  0
  8  9  2  0
  9 10  1  0
 10 11  1  0
 10 12  2  0
  3 13  1  0
 13 14  2  0
 14 15  1  0
 15 16  2  0
 16 17  1  0
 17 18  1  0
 17 19  2  0
 19 20  1  0
 20 21  1  0
 20 22  2  0
 22  2  1  0
 12  6  1  0
 22 15  1  0
M  END
>  <pIC50>  (253) 
6.38

>  <ChEMBL_ID>  (253) 
CHEMBL24007

>  <document_journal>  (253) 
J. Med. Chem.

>  <bao_endpoint>  (253) 
BAO_0000190

>  <potential_duplicate>  (253) 
False

>  <uo_units>  (253) 
UO_0000065

>  <canonical_smiles>  (253) 
Cc1c(CSc2cccc(Cl)c2)cnc3nc(N)nc(N)c13

>  <parent_molecule_chembl_id>  (253) 
CHEMBL24007

>  <assay_type>  (253) 
B

>  <src_id>  (253) 
1

>  <ligand_efficiency>  (253) 
{u'le': u'0.4', u'bei': u'19.22', u'sei': u'5.5', u'lle': u'3.1'}

>  <standard_flag>  (253) 
True

>  <molecule_chembl_id>  (253) 
CHEMBL24007

>  <target_organism>  (253) 
Homo sapiens

>  <standard_units>  (253) 
nM

>  <record_id>  (253) 
292907

>  <document_chembl_id>  (253) 
CHEMBL1135401

>  <bao_format>  (253) 
BAO_0000357

>  <data_validity_description>  (253) 
None

>  <activity_id>  (253) 
902785

>  <standard_type>  (253) 
IC50

>  <target_chembl_id>  (253) 
CHEMBL202

>  <data_validity_comment>  (253) 
None

>  <published_value>  (253) 
420

>  <document_year>  (253) 
2002

>  <target_pref_name>  (253) 
Dihydrofolate reductase

>  <assay_chembl_id>  (253) 
CHEMBL669986

>  <standard_relation>  (253) 
=

>  <assay_description>  (253) 
Antimycobacterial activity against human dihydrofolate reductase (hDHFR)

>  <published_relation>  (253) 
=

>  <standard_value>  (253) 
420

>  <qudt_units>  (253) 
http://www.openphacts.org/units/Nanomolar

>  <target_tax_id>  (253) 
9606

>  <bao_label>  (253) 
single protein format

>  <published_units>  (253) 
nM

>  <pchembl_value>  (253) 
6.38

>  <published_type>  (253) 
IC50

>  <activity_comment>  (253) 
None

$$$$

     RDKit          

 25 28  0  0  0  0  0  0  0  0999 V2000
    0.0000    0.0000    0.0000 C   0  0  0  0  0  0  0  0  0  0  0  0
    0.0000    0.0000    0.0000 C   0  0  0  0  0  0  0  0  0  0  0  0
    0.0000    0.0000    0.0000 C   0  0  0  0  0  0  0  0  0  0  0  0
    0.0000    0.0000    0.0000 C   0  0  0  0  0  0  0  0  0  0  0  0
    0.0000    0.0000    0.0000 S   0  0  0  0  0  0  0  0  0  0  0  0
    0.0000    0.0000    0.0000 C   0  0  0  0  0  0  0  0  0  0  0  0
    0.0000    0.0000    0.0000 C   0  0  0  0  0  0  0  0  0  0  0  0
    0.0000    0.0000    0.0000 C   0  0  0  0  0  0  0  0  0  0  0  0
    0.0000    0.0000    0.0000 C   0  0  0  0  0  0  0  0  0  0  0  0
    0.0000    0.0000    0.0000 C   0  0  0  0  0  0  0  0  0  0  0  0
    0.0000    0.0000    0.0000 C   0  0  0  0  0  0  0  0  0  0  0  0
    0.0000    0.0000    0.0000 C   0  0  0  0  0  0  0  0  0  0  0  0
    0.0000    0.0000    0.0000 C   0  0  0  0  0  0  0  0  0  0  0  0
    0.0000    0.0000    0.0000 C   0  0  0  0  0  0  0  0  0  0  0  0
    0.0000    0.0000    0.0000 C   0  0  0  0  0  0  0  0  0  0  0  0
    0.0000    0.0000    0.0000 C   0  0  0  0  0  0  0  0  0  0  0  0
    0.0000    0.0000    0.0000 N   0  0  0  0  0  0  0  0  0  0  0  0
    0.0000    0.0000    0.0000 C   0  0  0  0  0  0  0  0  0  0  0  0
    0.0000    0.0000    0.0000 N   0  0  0  0  0  0  0  0  0  0  0  0
    0.0000    0.0000    0.0000 C   0  0  0  0  0  0  0  0  0  0  0  0
    0.0000    0.0000    0.0000 N   0  0  0  0  0  0  0  0  0  0  0  0
    0.0000    0.0000    0.0000 N   0  0  0  0  0  0  0  0  0  0  0  0
    0.0000    0.0000    0.0000 C   0  0  0  0  0  0  0  0  0  0  0  0
    0.0000    0.0000    0.0000 N   0  0  0  0  0  0  0  0  0  0  0  0
    0.0000    0.0000    0.0000 C   0  0  0  0  0  0  0  0  0  0  0  0
  1  2  1  0
  2  3  2  0
  3  4  1  0
  4  5  1  0
  5  6  1  0
  6  7  2  0
  7  8  1  0
  8  9  2  0
  9 10  1  0
 10 11  2  0
 11 12  1  0
 12 13  2  0
 13 14  1  0
 14 15  2  0
  3 16  1  0
 16 17  2  0
 17 18  1  0
 18 19  2  0
 19 20  1  0
 20 21  1  0
 20 22  2  0
 22 23  1  0
 23 24  1  0
 23 25  2  0
 25  2  1  0
 15  6  1  0
 15 10  1  0
 25 18  1  0
M  END
>  <pIC50>  (254) 
6.36

>  <ChEMBL_ID>  (254) 
CHEMBL23584

>  <document_journal>  (254) 
J. Med. Chem.

>  <bao_endpoint>  (254) 
BAO_0000190

>  <potential_duplicate>  (254) 
False

>  <uo_units>  (254) 
UO_0000065

>  <canonical_smiles>  (254) 
Cc1c(CSc2cccc3ccccc23)cnc4nc(N)nc(N)c14

>  <parent_molecule_chembl_id>  (254) 
CHEMBL23584

>  <assay_type>  (254) 
B

>  <src_id>  (254) 
1

>  <ligand_efficiency>  (254) 
{u'le': u'0.35', u'bei': u'18.3', u'sei': u'5.48', u'lle': u'2.84'}

>  <standard_flag>  (254) 
True

>  <molecule_chembl_id>  (254) 
CHEMBL23584

>  <target_organism>  (254) 
Homo sapiens

>  <standard_units>  (254) 
nM

>  <record_id>  (254) 
292906

>  <document_chembl_id>  (254) 
CHEMBL1135401

>  <bao_format>  (254) 
BAO_0000357

>  <data_validity_description>  (254) 
None

>  <activity_id>  (254) 
902789

>  <standard_type>  (254) 
IC50

>  <target_chembl_id>  (254) 
CHEMBL202

>  <data_validity_comment>  (254) 
None

>  <published_value>  (254) 
440

>  <document_year>  (254) 
2002

>  <target_pref_name>  (254) 
Dihydrofolate reductase

>  <assay_chembl_id>  (254) 
CHEMBL669986

>  <standard_relation>  (254) 
=

>  <assay_description>  (254) 
Antimycobacterial activity against human dihydrofolate reductase (hDHFR)

>  <published_relation>  (254) 
=

>  <standard_value>  (254) 
440

>  <qudt_units>  (254) 
http://www.openphacts.org/units/Nanomolar

>  <target_tax_id>  (254) 
9606

>  <bao_label>  (254) 
single protein format

>  <published_units>  (254) 
nM

>  <pchembl_value>  (254) 
6.36

>  <published_type>  (254) 
IC50

>  <activity_comment>  (254) 
None

$$$$

     RDKit          

 31 36  0  0  0  0  0  0  0  0999 V2000
    0.0000    0.0000    0.0000 C   0  0  0  0  0  0  0  0  0  0  0  0
    0.0000    0.0000    0.0000 C   0  0  0  0  0  0  0  0  0  0  0  0
    0.0000    0.0000    0.0000 C   0  0  0  0  0  0  0  0  0  0  0  0
    0.0000    0.0000    0.0000 C   0  0  0  0  0  0  0  0  0  0  0  0
    0.0000    0.0000    0.0000 N   0  0  0  0  0  0  0  0  0  0  0  0
    0.0000    0.0000    0.0000 C   0  0  0  0  0  0  0  0  0  0  0  0
    0.0000    0.0000    0.0000 C   0  0  0  0  0  0  0  0  0  0  0  0
    0.0000    0.0000    0.0000 C   0  0  0  0  0  0  0  0  0  0  0  0
    0.0000    0.0000    0.0000 C   0  0  0  0  0  0  0  0  0  0  0  0
    0.0000    0.0000    0.0000 C   0  0  0  0  0  0  0  0  0  0  0  0
    0.0000    0.0000    0.0000 C   0  0  0  0  0  0  0  0  0  0  0  0
    0.0000    0.0000    0.0000 C   0  0  0  0  0  0  0  0  0  0  0  0
    0.0000    0.0000    0.0000 C   0  0  0  0  0  0  0  0  0  0  0  0
    0.0000    0.0000    0.0000 C   0  0  0  0  0  0  0  0  0  0  0  0
    0.0000    0.0000    0.0000 C   0  0  0  0  0  0  0  0  0  0  0  0
    0.0000    0.0000    0.0000 C   0  0  0  0  0  0  0  0  0  0  0  0
    0.0000    0.0000    0.0000 C   0  0  0  0  0  0  0  0  0  0  0  0
    0.0000    0.0000    0.0000 C   0  0  0  0  0  0  0  0  0  0  0  0
    0.0000    0.0000    0.0000 C   0  0  0  0  0  0  0  0  0  0  0  0
    0.0000    0.0000    0.0000 C   0  0  0  0  0  0  0  0  0  0  0  0
    0.0000    0.0000    0.0000 C   0  0  0  0  0  0  0  0  0  0  0  0
    0.0000    0.0000    0.0000 C   0  0  0  0  0  0  0  0  0  0  0  0
    0.0000    0.0000    0.0000 N   0  0  0  0  0  0  0  0  0  0  0  0
    0.0000    0.0000    0.0000 C   0  0  0  0  0  0  0  0  0  0  0  0
    0.0000    0.0000    0.0000 N   0  0  0  0  0  0  0  0  0  0  0  0
    0.0000    0.0000    0.0000 C   0  0  0  0  0  0  0  0  0  0  0  0
    0.0000    0.0000    0.0000 N   0  0  0  0  0  0  0  0  0  0  0  0
    0.0000    0.0000    0.0000 N   0  0  0  0  0  0  0  0  0  0  0  0
    0.0000    0.0000    0.0000 C   0  0  0  0  0  0  0  0  0  0  0  0
    0.0000    0.0000    0.0000 N   0  0  0  0  0  0  0  0  0  0  0  0
    0.0000    0.0000    0.0000 C   0  0  0  0  0  0  0  0  0  0  0  0
  1  2  1  0
  2  3  2  0
  3  4  1  0
  4  5  1  0
  5  6  1  0
  6  7  2  0
  7  8  1  0
  8  9  2  0
  9 10  1  0
 10 11  2  0
 11 12  1  0
 12 13  2  0
 13 14  1  0
 14 15  2  0
 15 16  1  0
 16 17  1  0
 17 18  2  0
 18 19  1  0
 19 20  2  0
 20 21  1  0
  3 22  1  0
 22 23  2  0
 23 24  1  0
 24 25  2  0
 25 26  1  0
 26 27  1  0
 26 28  2  0
 28 29  1  0
 29 30  1  0
 29 31  2  0
 31  2  1  0
 20  6  1  0
 21  9  1  0
 15 10  1  0
 21 16  2  0
 31 24  1  0
M  END
>  <pIC50>  (255) 
8.21

>  <ChEMBL_ID>  (255) 
CHEMBL151451

>  <document_journal>  (255) 
J. Med. Chem.

>  <bao_endpoint>  (255) 
BAO_0000190

>  <potential_duplicate>  (255) 
False

>  <uo_units>  (255) 
UO_0000065

>  <canonical_smiles>  (255) 
Cc1c(CNc2ccc3c4ccccc4c5cccc2c35)cnc6nc(N)nc(N)c16

>  <parent_molecule_chembl_id>  (255) 
CHEMBL151451

>  <assay_type>  (255) 
B

>  <src_id>  (255) 
1

>  <ligand_efficiency>  (255) 
{u'le': u'0.36', u'bei': u'20.29', u'sei': u'7.99', u'lle': u'4.22'}

>  <standard_flag>  (255) 
True

>  <molecule_chembl_id>  (255) 
CHEMBL151451

>  <target_organism>  (255) 
Homo sapiens

>  <standard_units>  (255) 
nM

>  <record_id>  (255) 
292882

>  <document_chembl_id>  (255) 
CHEMBL1135401

>  <bao_format>  (255) 
BAO_0000357

>  <data_validity_description>  (255) 
None

>  <activity_id>  (255) 
902831

>  <standard_type>  (255) 
IC50

>  <target_chembl_id>  (255) 
CHEMBL202

>  <data_validity_comment>  (255) 
None

>  <published_value>  (255) 
6.2

>  <document_year>  (255) 
2002

>  <target_pref_name>  (255) 
Dihydrofolate reductase

>  <assay_chembl_id>  (255) 
CHEMBL669986

>  <standard_relation>  (255) 
=

>  <assay_description>  (255) 
Antimycobacterial activity against human dihydrofolate reductase (hDHFR)

>  <published_relation>  (255) 
=

>  <standard_value>  (255) 
6.2

>  <qudt_units>  (255) 
http://www.openphacts.org/units/Nanomolar

>  <target_tax_id>  (255) 
9606

>  <bao_label>  (255) 
single protein format

>  <published_units>  (255) 
nM

>  <pchembl_value>  (255) 
8.21

>  <published_type>  (255) 
IC50

>  <activity_comment>  (255) 
None

$$$$

     RDKit          

 28 30  0  0  0  0  0  0  0  0999 V2000
    0.0000    0.0000    0.0000 C   0  0  0  0  0  0  0  0  0  0  0  0
    0.0000    0.0000    0.0000 C   0  0  0  0  0  0  0  0  0  0  0  0
    0.0000    0.0000    0.0000 C   0  0  0  0  0  0  0  0  0  0  0  0
    0.0000    0.0000    0.0000 C   0  0  0  0  0  0  0  0  0  0  0  0
    0.0000    0.0000    0.0000 C   0  0  0  0  0  0  0  0  0  0  0  0
    0.0000    0.0000    0.0000 N   0  0  0  0  0  0  0  0  0  0  0  0
    0.0000    0.0000    0.0000 C   0  0  0  0  0  0  0  0  0  0  0  0
    0.0000    0.0000    0.0000 C   0  0  0  0  0  0  0  0  0  0  0  0
    0.0000    0.0000    0.0000 C   0  0  0  0  0  0  0  0  0  0  0  0
    0.0000    0.0000    0.0000 C   0  0  0  0  0  0  0  0  0  0  0  0
    0.0000    0.0000    0.0000 C   0  0  0  0  0  0  0  0  0  0  0  0
    0.0000    0.0000    0.0000 C   0  0  0  0  0  0  0  0  0  0  0  0
    0.0000    0.0000    0.0000 O   0  0  0  0  0  0  0  0  0  0  0  0
    0.0000    0.0000    0.0000 C   0  0  0  0  0  0  0  0  0  0  0  0
    0.0000    0.0000    0.0000 C   0  0  0  0  0  0  0  0  0  0  0  0
    0.0000    0.0000    0.0000 F   0  0  0  0  0  0  0  0  0  0  0  0
    0.0000    0.0000    0.0000 F   0  0  0  0  0  0  0  0  0  0  0  0
    0.0000    0.0000    0.0000 F   0  0  0  0  0  0  0  0  0  0  0  0
    0.0000    0.0000    0.0000 C   0  0  0  0  0  0  0  0  0  0  0  0
    0.0000    0.0000    0.0000 N   0  0  0  0  0  0  0  0  0  0  0  0
    0.0000    0.0000    0.0000 C   0  0  0  0  0  0  0  0  0  0  0  0
    0.0000    0.0000    0.0000 N   0  0  0  0  0  0  0  0  0  0  0  0
    0.0000    0.0000    0.0000 C   0  0  0  0  0  0  0  0  0  0  0  0
    0.0000    0.0000    0.0000 N   0  0  0  0  0  0  0  0  0  0  0  0
    0.0000    0.0000    0.0000 N   0  0  0  0  0  0  0  0  0  0  0  0
    0.0000    0.0000    0.0000 C   0  0  0  0  0  0  0  0  0  0  0  0
    0.0000    0.0000    0.0000 N   0  0  0  0  0  0  0  0  0  0  0  0
    0.0000    0.0000    0.0000 C   0  0  0  0  0  0  0  0  0  0  0  0
  1  2  1  0
  2  3  1  0
  3  4  2  0
  4  5  1  0
  5  6  1  0
  6  7  1  0
  7  8  2  0
  8  9  1  0
  9 10  2  0
 10 11  1  0
 11 12  2  0
 12 13  1  0
 13 14  1  0
  9 15  1  0
 15 16  1  0
 15 17  1  0
 15 18  1  0
  4 19  1  0
 19 20  2  0
 20 21  1  0
 21 22  2  0
 22 23  1  0
 23 24  1  0
 23 25  2  0
 25 26  1  0
 26 27  1  0
 26 28  2  0
 28  3  1  0
 12  7  1  0
 28 21  1  0
M  END
>  <pIC50>  (256) 
8.44

>  <ChEMBL_ID>  (256) 
CHEMBL148577

>  <document_journal>  (256) 
J. Med. Chem.

>  <bao_endpoint>  (256) 
BAO_0000190

>  <potential_duplicate>  (256) 
False

>  <uo_units>  (256) 
UO_0000065

>  <canonical_smiles>  (256) 
CCc1c(CNc2cc(ccc2OC)C(F)(F)F)cnc3nc(N)nc(N)c13

>  <parent_molecule_chembl_id>  (256) 
CHEMBL148577

>  <assay_type>  (256) 
B

>  <src_id>  (256) 
1

>  <ligand_efficiency>  (256) 
{u'le': u'0.41', u'bei': u'21.52', u'sei': u'7.54', u'lle': u'5.18'}

>  <standard_flag>  (256) 
True

>  <molecule_chembl_id>  (256) 
CHEMBL148577

>  <target_organism>  (256) 
Homo sapiens

>  <standard_units>  (256) 
nM

>  <record_id>  (256) 
292890

>  <document_chembl_id>  (256) 
CHEMBL1135401

>  <bao_format>  (256) 
BAO_0000357

>  <data_validity_description>  (256) 
None

>  <activity_id>  (256) 
903962

>  <standard_type>  (256) 
IC50

>  <target_chembl_id>  (256) 
CHEMBL202

>  <data_validity_comment>  (256) 
None

>  <published_value>  (256) 
3.6

>  <document_year>  (256) 
2002

>  <target_pref_name>  (256) 
Dihydrofolate reductase

>  <assay_chembl_id>  (256) 
CHEMBL669986

>  <standard_relation>  (256) 
=

>  <assay_description>  (256) 
Antimycobacterial activity against human dihydrofolate reductase (hDHFR)

>  <published_relation>  (256) 
=

>  <standard_value>  (256) 
3.6

>  <qudt_units>  (256) 
http://www.openphacts.org/units/Nanomolar

>  <target_tax_id>  (256) 
9606

>  <bao_label>  (256) 
single protein format

>  <published_units>  (256) 
nM

>  <pchembl_value>  (256) 
8.44

>  <published_type>  (256) 
IC50

>  <activity_comment>  (256) 
None

$$$$

     RDKit          

 33 35  0  0  0  0  0  0  0  0999 V2000
    0.0000    0.0000    0.0000 N   0  0  0  0  0  0  0  0  0  0  0  0
    0.0000    0.0000    0.0000 C   0  0  0  0  0  0  0  0  0  0  0  0
    0.0000    0.0000    0.0000 N   0  0  0  0  0  0  0  0  0  0  0  0
    0.0000    0.0000    0.0000 C   0  0  0  0  0  0  0  0  0  0  0  0
    0.0000    0.0000    0.0000 N   0  0  0  0  0  0  0  0  0  0  0  0
    0.0000    0.0000    0.0000 C   0  0  0  0  0  0  0  0  0  0  0  0
    0.0000    0.0000    0.0000 N   0  0  0  0  0  0  0  0  0  0  0  0
    0.0000    0.0000    0.0000 C   0  0  0  0  0  0  0  0  0  0  0  0
    0.0000    0.0000    0.0000 C   0  0  0  0  0  0  0  0  0  0  0  0
    0.0000    0.0000    0.0000 N   0  0  0  0  0  0  0  0  0  0  0  0
    0.0000    0.0000    0.0000 C   0  0  0  0  0  0  0  0  0  0  0  0
    0.0000    0.0000    0.0000 C   0  0  0  0  0  0  0  0  0  0  0  0
    0.0000    0.0000    0.0000 C   0  0  0  0  0  0  0  0  0  0  0  0
    0.0000    0.0000    0.0000 C   0  0  0  0  0  0  0  0  0  0  0  0
    0.0000    0.0000    0.0000 C   0  0  0  0  0  0  0  0  0  0  0  0
    0.0000    0.0000    0.0000 O   0  0  0  0  0  0  0  0  0  0  0  0
    0.0000    0.0000    0.0000 N   0  0  0  0  0  0  0  0  0  0  0  0
    0.0000    0.0000    0.0000 C   0  0  0  0  0  0  0  0  0  0  0  0
    0.0000    0.0000    0.0000 C   0  0  0  0  0  0  0  0  0  0  0  0
    0.0000    0.0000    0.0000 C   0  0  0  0  0  0  0  0  0  0  0  0
    0.0000    0.0000    0.0000 C   0  0  0  0  0  0  0  0  0  0  0  0
    0.0000    0.0000    0.0000 O   0  0  0  0  0  0  0  0  0  0  0  0
    0.0000    0.0000    0.0000 O   0  0  0  0  0  0  0  0  0  0  0  0
    0.0000    0.0000    0.0000 C   0  0  0  0  0  0  0  0  0  0  0  0
    0.0000    0.0000    0.0000 O   0  0  0  0  0  0  0  0  0  0  0  0
    0.0000    0.0000    0.0000 O   0  0  0  0  0  0  0  0  0  0  0  0
    0.0000    0.0000    0.0000 C   0  0  0  0  0  0  0  0  0  0  0  0
    0.0000    0.0000    0.0000 F   0  0  0  0  0  0  0  0  0  0  0  0
    0.0000    0.0000    0.0000 C   0  0  0  0  0  0  0  0  0  0  0  0
    0.0000    0.0000    0.0000 C   0  0  0  0  0  0  0  0  0  0  0  0
    0.0000    0.0000    0.0000 N   0  0  0  0  0  0  0  0  0  0  0  0
    0.0000    0.0000    0.0000 C   0  0  0  0  0  0  0  0  0  0  0  0
    0.0000    0.0000    0.0000 N   0  0  0  0  0  0  0  0  0  0  0  0
  1  2  1  0
  2  3  2  0
  3  4  1  0
  4  5  1  0
  4  6  2  0
  6  7  1  0
  7  8  2  0
  8  9  1  0
  9 10  1  0
 10 11  1  0
 11 12  2  0
 12 13  1  0
 13 14  2  0
 14 15  1  0
 15 16  2  0
 15 17  1  0
 17 18  1  0
 18 19  1  0
 19 20  1  0
 20 21  1  0
 21 22  2  0
 21 23  1  0
 18 24  1  0
 24 25  2  0
 24 26  1  0
 14 27  1  0
 27 28  1  0
 27 29  2  0
  8 30  1  0
 30 31  2  0
 31 32  1  0
 32 33  2  0
 33  2  1  0
 32  6  1  0
 29 11  1  0
M  END
>  <pIC50>  (257) 
7.57

>  <ChEMBL_ID>  (257) 
CHEMBL19227

>  <document_journal>  (257) 
J. Med. Chem.

>  <bao_endpoint>  (257) 
BAO_0000190

>  <potential_duplicate>  (257) 
False

>  <uo_units>  (257) 
UO_0000065

>  <canonical_smiles>  (257) 
Nc1nc(N)c2nc(CNc3ccc(C(=O)NC(CCC(=O)O)C(=O)O)c(F)c3)cnc2n1

>  <parent_molecule_chembl_id>  (257) 
CHEMBL19227

>  <assay_type>  (257) 
B

>  <src_id>  (257) 
1

>  <ligand_efficiency>  (257) 
{u'le': u'0.31', u'bei': u'16.51', u'sei': u'3.45', u'lle': u'7.6'}

>  <standard_flag>  (257) 
True

>  <molecule_chembl_id>  (257) 
CHEMBL19227

>  <target_organism>  (257) 
Homo sapiens

>  <standard_units>  (257) 
nM

>  <record_id>  (257) 
22406

>  <document_chembl_id>  (257) 
CHEMBL1122445

>  <bao_format>  (257) 
BAO_0000219

>  <data_validity_description>  (257) 
None

>  <activity_id>  (257) 
947886

>  <standard_type>  (257) 
IC50

>  <target_chembl_id>  (257) 
CHEMBL202

>  <data_validity_comment>  (257) 
None

>  <published_value>  (257) 
27

>  <document_year>  (257) 
1983

>  <target_pref_name>  (257) 
Dihydrofolate reductase

>  <assay_chembl_id>  (257) 
CHEMBL669442

>  <standard_relation>  (257) 
=

>  <assay_description>  (257) 
Inhibition of dihydrofolate reductase in HeLa cells

>  <published_relation>  (257) 
=

>  <standard_value>  (257) 
27

>  <qudt_units>  (257) 
http://www.openphacts.org/units/Nanomolar

>  <target_tax_id>  (257) 
9606

>  <bao_label>  (257) 
cell-based format

>  <published_units>  (257) 
nM

>  <pchembl_value>  (257) 
7.57

>  <published_type>  (257) 
I50

>  <activity_comment>  (257) 
None

$$$$

     RDKit          

 19 20  0  0  0  0  0  0  0  0999 V2000
    0.0000    0.0000    0.0000 C   0  0  0  0  0  0  0  0  0  0  0  0
    0.0000    0.0000    0.0000 O   0  0  0  0  0  0  0  0  0  0  0  0
    0.0000    0.0000    0.0000 C   0  0  0  0  0  0  0  0  0  0  0  0
    0.0000    0.0000    0.0000 C   0  0  0  0  0  0  0  0  0  0  0  0
    0.0000    0.0000    0.0000 C   0  0  0  0  0  0  0  0  0  0  0  0
    0.0000    0.0000    0.0000 C   0  0  0  0  0  0  0  0  0  0  0  0
    0.0000    0.0000    0.0000 C   0  0  0  0  0  0  0  0  0  0  0  0
    0.0000    0.0000    0.0000 C   0  0  0  0  0  0  0  0  0  0  0  0
    0.0000    0.0000    0.0000 C   0  0  0  0  0  0  0  0  0  0  0  0
    0.0000    0.0000    0.0000 N   0  0  0  0  0  0  0  0  0  0  0  0
    0.0000    0.0000    0.0000 C   0  0  0  0  0  0  0  0  0  0  0  0
    0.0000    0.0000    0.0000 N   0  0  0  0  0  0  0  0  0  0  0  0
    0.0000    0.0000    0.0000 N   0  0  0  0  0  0  0  0  0  0  0  0
    0.0000    0.0000    0.0000 C   0  0  0  0  0  0  0  0  0  0  0  0
    0.0000    0.0000    0.0000 N   0  0  0  0  0  0  0  0  0  0  0  0
    0.0000    0.0000    0.0000 C   0  0  0  0  0  0  0  0  0  0  0  0
    0.0000    0.0000    0.0000 C   0  0  0  0  0  0  0  0  0  0  0  0
    0.0000    0.0000    0.0000 O   0  0  0  0  0  0  0  0  0  0  0  0
    0.0000    0.0000    0.0000 C   0  0  0  0  0  0  0  0  0  0  0  0
  1  2  1  0
  2  3  1  0
  3  4  2  0
  4  5  1  0
  5  6  2  0
  6  7  1  0
  7  8  1  0
  8  9  2  0
  9 10  1  0
 10 11  2  0
 11 12  1  0
 11 13  1  0
 13 14  2  0
 14 15  1  0
  6 16  1  0
 16 17  2  0
 17 18  1  0
 18 19  1  0
 17  3  1  0
 14  8  1  0
M  END
>  <pIC50>  (258) 
6.28

>  <ChEMBL_ID>  (258) 
CHEMBL19633

>  <document_journal>  (258) 
J. Med. Chem.

>  <bao_endpoint>  (258) 
BAO_0000190

>  <potential_duplicate>  (258) 
False

>  <uo_units>  (258) 
UO_0000065

>  <canonical_smiles>  (258) 
COc1ccc(Cc2cnc(N)nc2N)cc1OC

>  <parent_molecule_chembl_id>  (258) 
CHEMBL19633

>  <assay_type>  (258) 
B

>  <src_id>  (258) 
1

>  <ligand_efficiency>  (258) 
{u'le': u'0.45', u'bei': u'24.11', u'sei': u'6.52', u'lle': u'4.72'}

>  <standard_flag>  (258) 
True

>  <molecule_chembl_id>  (258) 
CHEMBL19633

>  <target_organism>  (258) 
Homo sapiens

>  <standard_units>  (258) 
nM

>  <record_id>  (258) 
105634

>  <document_chembl_id>  (258) 
CHEMBL1123638

>  <bao_format>  (258) 
BAO_0000357

>  <data_validity_description>  (258) 
None

>  <activity_id>  (258) 
958416

>  <standard_type>  (258) 
IC50

>  <target_chembl_id>  (258) 
CHEMBL202

>  <data_validity_comment>  (258) 
None

>  <published_value>  (258) 
5.3E-7

>  <document_year>  (258) 
1987

>  <target_pref_name>  (258) 
Dihydrofolate reductase

>  <assay_chembl_id>  (258) 
CHEMBL667604

>  <standard_relation>  (258) 
=

>  <assay_description>  (258) 
Inhibitory activity against dihydrofolate reductase (DHFR) enzyme from Neisseria gonorrhoeae

>  <published_relation>  (258) 
=

>  <standard_value>  (258) 
530

>  <qudt_units>  (258) 
http://www.openphacts.org/units/Nanomolar

>  <target_tax_id>  (258) 
9606

>  <bao_label>  (258) 
single protein format

>  <published_units>  (258) 
M

>  <pchembl_value>  (258) 
6.28

>  <published_type>  (258) 
I50

>  <activity_comment>  (258) 
None

$$$$

     RDKit          

 21 22  0  0  0  0  0  0  0  0999 V2000
    0.0000    0.0000    0.0000 C   0  0  0  0  0  0  0  0  0  0  0  0
    0.0000    0.0000    0.0000 C   0  0  0  0  0  0  0  0  0  0  0  0
    0.0000    0.0000    0.0000 C   0  0  0  0  0  0  0  0  0  0  0  0
    0.0000    0.0000    0.0000 C   0  0  0  0  0  0  0  0  0  0  0  0
    0.0000    0.0000    0.0000 C   0  0  0  0  0  0  0  0  0  0  0  0
    0.0000    0.0000    0.0000 C   0  0  0  0  0  0  0  0  0  0  0  0
    0.0000    0.0000    0.0000 C   0  0  0  0  0  0  0  0  0  0  0  0
    0.0000    0.0000    0.0000 C   0  0  0  0  0  0  0  0  0  0  0  0
    0.0000    0.0000    0.0000 N   0  0  0  0  0  0  0  0  0  0  0  0
    0.0000    0.0000    0.0000 C   0  0  0  0  0  0  0  0  0  0  0  0
    0.0000    0.0000    0.0000 N   0  0  0  0  0  0  0  0  0  0  0  0
    0.0000    0.0000    0.0000 N   0  0  0  0  0  0  0  0  0  0  0  0
    0.0000    0.0000    0.0000 C   0  0  0  0  0  0  0  0  0  0  0  0
    0.0000    0.0000    0.0000 N   0  0  0  0  0  0  0  0  0  0  0  0
    0.0000    0.0000    0.0000 C   0  0  0  0  0  0  0  0  0  0  0  0
    0.0000    0.0000    0.0000 C   0  0  0  0  0  0  0  0  0  0  0  0
    0.0000    0.0000    0.0000 C   0  0  0  0  0  0  0  0  0  0  0  0
    0.0000    0.0000    0.0000 C   0  0  0  0  0  0  0  0  0  0  0  0
    0.0000    0.0000    0.0000 C   0  0  0  0  0  0  0  0  0  0  0  0
    0.0000    0.0000    0.0000 C   0  0  0  0  0  0  0  0  0  0  0  0
    0.0000    0.0000    0.0000 C   0  0  0  0  0  0  0  0  0  0  0  0
  1  2  1  0
  2  3  1  0
  3  4  2  0
  4  5  1  0
  5  6  1  0
  6  7  1  0
  7  8  2  0
  8  9  1  0
  9 10  2  0
 10 11  1  0
 10 12  1  0
 12 13  2  0
 13 14  1  0
  5 15  2  0
 15 16  1  0
 16 17  1  0
 17 18  1  0
 16 19  2  0
 19 20  1  0
 20 21  1  0
 19  3  1  0
 13  7  1  0
M  END
>  <pIC50>  (259) 
6.64

>  <ChEMBL_ID>  (259) 
CHEMBL57582

>  <document_journal>  (259) 
J. Med. Chem.

>  <bao_endpoint>  (259) 
BAO_0000190

>  <potential_duplicate>  (259) 
False

>  <uo_units>  (259) 
UO_0000065

>  <canonical_smiles>  (259) 
CCc1cc(Cc2cnc(N)nc2N)cc(CC)c1CC

>  <parent_molecule_chembl_id>  (259) 
CHEMBL57582

>  <assay_type>  (259) 
B

>  <src_id>  (259) 
1

>  <ligand_efficiency>  (259) 
{u'le': u'0.43', u'bei': u'23.34', u'sei': u'8.53', u'lle': u'2.22'}

>  <standard_flag>  (259) 
True

>  <molecule_chembl_id>  (259) 
CHEMBL57582

>  <target_organism>  (259) 
Homo sapiens

>  <standard_units>  (259) 
nM

>  <record_id>  (259) 
105637

>  <document_chembl_id>  (259) 
CHEMBL1123638

>  <bao_format>  (259) 
BAO_0000357

>  <data_validity_description>  (259) 
None

>  <activity_id>  (259) 
964786

>  <standard_type>  (259) 
IC50

>  <target_chembl_id>  (259) 
CHEMBL202

>  <data_validity_comment>  (259) 
None

>  <published_value>  (259) 
2.3E-7

>  <document_year>  (259) 
1987

>  <target_pref_name>  (259) 
Dihydrofolate reductase

>  <assay_chembl_id>  (259) 
CHEMBL667604

>  <standard_relation>  (259) 
=

>  <assay_description>  (259) 
Inhibitory activity against dihydrofolate reductase (DHFR) enzyme from Neisseria gonorrhoeae

>  <published_relation>  (259) 
=

>  <standard_value>  (259) 
230

>  <qudt_units>  (259) 
http://www.openphacts.org/units/Nanomolar

>  <target_tax_id>  (259) 
9606

>  <bao_label>  (259) 
single protein format

>  <published_units>  (259) 
M

>  <pchembl_value>  (259) 
6.64

>  <published_type>  (259) 
I50

>  <activity_comment>  (259) 
None

$$$$

     RDKit          

 19 20  0  0  0  0  0  0  0  0999 V2000
    0.0000    0.0000    0.0000 C   0  0  0  0  0  0  0  0  0  0  0  0
    0.0000    0.0000    0.0000 C   0  0  0  0  0  0  0  0  0  0  0  0
    0.0000    0.0000    0.0000 C   0  0  0  0  0  0  0  0  0  0  0  0
    0.0000    0.0000    0.0000 C   0  0  0  0  0  0  0  0  0  0  0  0
    0.0000    0.0000    0.0000 C   0  0  0  0  0  0  0  0  0  0  0  0
    0.0000    0.0000    0.0000 C   0  0  0  0  0  0  0  0  0  0  0  0
    0.0000    0.0000    0.0000 C   0  0  0  0  0  0  0  0  0  0  0  0
    0.0000    0.0000    0.0000 C   0  0  0  0  0  0  0  0  0  0  0  0
    0.0000    0.0000    0.0000 C   0  0  0  0  0  0  0  0  0  0  0  0
    0.0000    0.0000    0.0000 N   0  0  0  0  0  0  0  0  0  0  0  0
    0.0000    0.0000    0.0000 C   0  0  0  0  0  0  0  0  0  0  0  0
    0.0000    0.0000    0.0000 N   0  0  0  0  0  0  0  0  0  0  0  0
    0.0000    0.0000    0.0000 N   0  0  0  0  0  0  0  0  0  0  0  0
    0.0000    0.0000    0.0000 C   0  0  0  0  0  0  0  0  0  0  0  0
    0.0000    0.0000    0.0000 N   0  0  0  0  0  0  0  0  0  0  0  0
    0.0000    0.0000    0.0000 C   0  0  0  0  0  0  0  0  0  0  0  0
    0.0000    0.0000    0.0000 C   0  0  0  0  0  0  0  0  0  0  0  0
    0.0000    0.0000    0.0000 C   0  0  0  0  0  0  0  0  0  0  0  0
    0.0000    0.0000    0.0000 C   0  0  0  0  0  0  0  0  0  0  0  0
  1  2  1  0
  2  3  1  0
  3  4  2  0
  4  5  1  0
  5  6  2  0
  6  7  1  0
  7  8  1  0
  8  9  2  0
  9 10  1  0
 10 11  2  0
 11 12  1  0
 11 13  1  0
 13 14  2  0
 14 15  1  0
  6 16  1  0
 16 17  2  0
 17 18  1  0
 18 19  1  0
 17  3  1  0
 14  8  1  0
M  END
>  <pIC50>  (260) 
5.96

>  <ChEMBL_ID>  (260) 
CHEMBL293013

>  <document_journal>  (260) 
J. Med. Chem.

>  <bao_endpoint>  (260) 
BAO_0000190

>  <potential_duplicate>  (260) 
False

>  <uo_units>  (260) 
UO_0000065

>  <canonical_smiles>  (260) 
CCc1ccc(Cc2cnc(N)nc2N)cc1CC

>  <parent_molecule_chembl_id>  (260) 
CHEMBL293013

>  <assay_type>  (260) 
B

>  <src_id>  (260) 
1

>  <ligand_efficiency>  (260) 
{u'le': u'0.43', u'bei': u'23.23', u'sei': u'7.65', u'lle': u'2.47'}

>  <standard_flag>  (260) 
True

>  <molecule_chembl_id>  (260) 
CHEMBL293013

>  <target_organism>  (260) 
Homo sapiens

>  <standard_units>  (260) 
nM

>  <record_id>  (260) 
105633

>  <document_chembl_id>  (260) 
CHEMBL1123638

>  <bao_format>  (260) 
BAO_0000357

>  <data_validity_description>  (260) 
None

>  <activity_id>  (260) 
973572

>  <standard_type>  (260) 
IC50

>  <target_chembl_id>  (260) 
CHEMBL202

>  <data_validity_comment>  (260) 
None

>  <published_value>  (260) 
0.00000111

>  <document_year>  (260) 
1987

>  <target_pref_name>  (260) 
Dihydrofolate reductase

>  <assay_chembl_id>  (260) 
CHEMBL667604

>  <standard_relation>  (260) 
=

>  <assay_description>  (260) 
Inhibitory activity against dihydrofolate reductase (DHFR) enzyme from Neisseria gonorrhoeae

>  <published_relation>  (260) 
=

>  <standard_value>  (260) 
1110

>  <qudt_units>  (260) 
http://www.openphacts.org/units/Nanomolar

>  <target_tax_id>  (260) 
9606

>  <bao_label>  (260) 
single protein format

>  <published_units>  (260) 
M

>  <pchembl_value>  (260) 
5.96

>  <published_type>  (260) 
I50

>  <activity_comment>  (260) 
None

$$$$

     RDKit          

 33 35  0  0  0  0  0  0  0  0999 V2000
    0.0000    0.0000    0.0000 N   0  0  0  0  0  0  0  0  0  0  0  0
    0.0000    0.0000    0.0000 C   0  0  0  0  0  0  0  0  0  0  0  0
    0.0000    0.0000    0.0000 N   0  0  0  0  0  0  0  0  0  0  0  0
    0.0000    0.0000    0.0000 C   0  0  0  0  0  0  0  0  0  0  0  0
    0.0000    0.0000    0.0000 N   0  0  0  0  0  0  0  0  0  0  0  0
    0.0000    0.0000    0.0000 C   0  0  0  0  0  0  0  0  0  0  0  0
    0.0000    0.0000    0.0000 N   0  0  0  0  0  0  0  0  0  0  0  0
    0.0000    0.0000    0.0000 C   0  0  0  0  0  0  0  0  0  0  0  0
    0.0000    0.0000    0.0000 C   0  0  0  0  0  0  0  0  0  0  0  0
    0.0000    0.0000    0.0000 N   0  0  0  0  0  0  0  0  0  0  0  0
    0.0000    0.0000    0.0000 C   0  0  0  0  0  0  0  0  0  0  0  0
    0.0000    0.0000    0.0000 C   0  0  0  0  0  0  0  0  0  0  0  0
    0.0000    0.0000    0.0000 C   0  0  0  0  0  0  0  0  0  0  0  0
    0.0000    0.0000    0.0000 C   0  0  0  0  0  0  0  0  0  0  0  0
    0.0000    0.0000    0.0000 C   0  0  0  0  0  0  0  0  0  0  0  0
    0.0000    0.0000    0.0000 C   0  0  0  0  0  0  0  0  0  0  0  0
    0.0000    0.0000    0.0000 F   0  0  0  0  0  0  0  0  0  0  0  0
    0.0000    0.0000    0.0000 C   0  0  0  0  0  0  0  0  0  0  0  0
    0.0000    0.0000    0.0000 O   0  0  0  0  0  0  0  0  0  0  0  0
    0.0000    0.0000    0.0000 N   0  0  0  0  0  0  0  0  0  0  0  0
    0.0000    0.0000    0.0000 C   0  0  0  0  0  0  0  0  0  0  0  0
    0.0000    0.0000    0.0000 C   0  0  0  0  0  0  0  0  0  0  0  0
    0.0000    0.0000    0.0000 C   0  0  0  0  0  0  0  0  0  0  0  0
    0.0000    0.0000    0.0000 C   0  0  0  0  0  0  0  0  0  0  0  0
    0.0000    0.0000    0.0000 O   0  0  0  0  0  0  0  0  0  0  0  0
    0.0000    0.0000    0.0000 O   0  0  0  0  0  0  0  0  0  0  0  0
    0.0000    0.0000    0.0000 C   0  0  0  0  0  0  0  0  0  0  0  0
    0.0000    0.0000    0.0000 O   0  0  0  0  0  0  0  0  0  0  0  0
    0.0000    0.0000    0.0000 O   0  0  0  0  0  0  0  0  0  0  0  0
    0.0000    0.0000    0.0000 C   0  0  0  0  0  0  0  0  0  0  0  0
    0.0000    0.0000    0.0000 N   0  0  0  0  0  0  0  0  0  0  0  0
    0.0000    0.0000    0.0000 C   0  0  0  0  0  0  0  0  0  0  0  0
    0.0000    0.0000    0.0000 N   0  0  0  0  0  0  0  0  0  0  0  0
  1  2  1  0
  2  3  2  0
  3  4  1  0
  4  5  1  0
  4  6  2  0
  6  7  1  0
  7  8  2  0
  8  9  1  0
  9 10  1  0
 10 11  1  0
 11 12  2  0
 12 13  1  0
 13 14  2  0
 14 15  1  0
 15 16  2  0
 16 17  1  0
 14 18  1  0
 18 19  2  0
 18 20  1  0
 20 21  1  0
 21 22  1  0
 22 23  1  0
 23 24  1  0
 24 25  2  0
 24 26  1  0
 21 27  1  0
 27 28  2  0
 27 29  1  0
  8 30  1  0
 30 31  2  0
 31 32  1  0
 32 33  2  0
 33  2  1  0
 32  6  1  0
 16 11  1  0
M  END
>  <pIC50>  (261) 
7.72

>  <ChEMBL_ID>  (261) 
CHEMBL18925

>  <document_journal>  (261) 
J. Med. Chem.

>  <bao_endpoint>  (261) 
BAO_0000190

>  <potential_duplicate>  (261) 
False

>  <uo_units>  (261) 
UO_0000065

>  <canonical_smiles>  (261) 
Nc1nc(N)c2nc(CNc3ccc(cc3F)C(=O)NC(CCC(=O)O)C(=O)O)cnc2n1

>  <parent_molecule_chembl_id>  (261) 
CHEMBL18925

>  <assay_type>  (261) 
B

>  <src_id>  (261) 
1

>  <ligand_efficiency>  (261) 
{u'le': u'0.32', u'bei': u'16.84', u'sei': u'3.52', u'lle': u'7.75'}

>  <standard_flag>  (261) 
True

>  <molecule_chembl_id>  (261) 
CHEMBL18925

>  <target_organism>  (261) 
Homo sapiens

>  <standard_units>  (261) 
nM

>  <record_id>  (261) 
22407

>  <document_chembl_id>  (261) 
CHEMBL1122445

>  <bao_format>  (261) 
BAO_0000219

>  <data_validity_description>  (261) 
None

>  <activity_id>  (261) 
976019

>  <standard_type>  (261) 
IC50

>  <target_chembl_id>  (261) 
CHEMBL202

>  <data_validity_comment>  (261) 
None

>  <published_value>  (261) 
19

>  <document_year>  (261) 
1983

>  <target_pref_name>  (261) 
Dihydrofolate reductase

>  <assay_chembl_id>  (261) 
CHEMBL669442

>  <standard_relation>  (261) 
=

>  <assay_description>  (261) 
Inhibition of dihydrofolate reductase in HeLa cells

>  <published_relation>  (261) 
=

>  <standard_value>  (261) 
19

>  <qudt_units>  (261) 
http://www.openphacts.org/units/Nanomolar

>  <target_tax_id>  (261) 
9606

>  <bao_label>  (261) 
cell-based format

>  <published_units>  (261) 
nM

>  <pchembl_value>  (261) 
7.72

>  <published_type>  (261) 
I50

>  <activity_comment>  (261) 
None

$$$$

     RDKit          

 35 37  0  0  0  0  0  0  0  0999 V2000
    0.0000    0.0000    0.0000 C   0  0  0  0  0  0  0  0  0  0  0  0
    0.0000    0.0000    0.0000 N   0  0  0  0  0  0  0  0  0  0  0  0
    0.0000    0.0000    0.0000 C   0  0  0  0  0  0  0  0  0  0  0  0
    0.0000    0.0000    0.0000 C   0  0  0  0  0  0  0  0  0  0  0  0
    0.0000    0.0000    0.0000 C   0  0  0  0  0  0  0  0  0  0  0  0
    0.0000    0.0000    0.0000 N   0  0  0  0  0  0  0  0  0  0  0  0
    0.0000    0.0000    0.0000 C   0  0  0  0  0  0  0  0  0  0  0  0
    0.0000    0.0000    0.0000 N   0  0  0  0  0  0  0  0  0  0  0  0
    0.0000    0.0000    0.0000 C   0  0  0  0  0  0  0  0  0  0  0  0
    0.0000    0.0000    0.0000 N   0  0  0  0  0  0  0  0  0  0  0  0
    0.0000    0.0000    0.0000 N   0  0  0  0  0  0  0  0  0  0  0  0
    0.0000    0.0000    0.0000 C   0  0  0  0  0  0  0  0  0  0  0  0
    0.0000    0.0000    0.0000 N   0  0  0  0  0  0  0  0  0  0  0  0
    0.0000    0.0000    0.0000 C   0  0  0  0  0  0  0  0  0  0  0  0
    0.0000    0.0000    0.0000 N   0  0  0  0  0  0  0  0  0  0  0  0
    0.0000    0.0000    0.0000 C   0  0  0  0  0  0  0  0  0  0  0  0
    0.0000    0.0000    0.0000 C   0  0  0  0  0  0  0  0  0  0  0  0
    0.0000    0.0000    0.0000 C   0  0  0  0  0  0  0  0  0  0  0  0
    0.0000    0.0000    0.0000 C   0  0  0  0  0  0  0  0  0  0  0  0
    0.0000    0.0000    0.0000 C   0  0  0  0  0  0  0  0  0  0  0  0
    0.0000    0.0000    0.0000 C   0  0  0  0  0  0  0  0  0  0  0  0
    0.0000    0.0000    0.0000 C   0  0  0  0  0  0  0  0  0  0  0  0
    0.0000    0.0000    0.0000 O   0  0  0  0  0  0  0  0  0  0  0  0
    0.0000    0.0000    0.0000 N   0  0  0  0  0  0  0  0  0  0  0  0
    0.0000    0.0000    0.0000 C   0  0  0  0  0  0  0  0  0  0  0  0
    0.0000    0.0000    0.0000 C   0  0  0  0  0  0  0  0  0  0  0  0
    0.0000    0.0000    0.0000 C   0  0  0  0  0  0  0  0  0  0  0  0
    0.0000    0.0000    0.0000 F   0  0  0  0  0  0  0  0  0  0  0  0
    0.0000    0.0000    0.0000 F   0  0  0  0  0  0  0  0  0  0  0  0
    0.0000    0.0000    0.0000 C   0  0  0  0  0  0  0  0  0  0  0  0
    0.0000    0.0000    0.0000 O   0  0  0  0  0  0  0  0  0  0  0  0
    0.0000    0.0000    0.0000 O   0  0  0  0  0  0  0  0  0  0  0  0
    0.0000    0.0000    0.0000 C   0  0  0  0  0  0  0  0  0  0  0  0
    0.0000    0.0000    0.0000 O   0  0  0  0  0  0  0  0  0  0  0  0
    0.0000    0.0000    0.0000 O   0  0  0  0  0  0  0  0  0  0  0  0
  1  2  1  0
  2  3  1  0
  3  4  1  0
  4  5  2  0
  5  6  1  0
  6  7  2  0
  7  8  1  0
  8  9  2  0
  9 10  1  0
  9 11  1  0
 11 12  2  0
 12 13  1  0
 12 14  1  0
 14 15  2  0
  2 16  1  0
 16 17  2  0
 17 18  1  0
 18 19  2  0
 19 20  1  0
 20 21  2  0
 19 22  1  0
 22 23  2  0
 22 24  1  0
 24 25  1  0
 25 26  1  0
 26 27  1  0
 27 28  1  0
 27 29  1  0
 27 30  1  0
 30 31  2  0
 30 32  1  0
 25 33  1  0
 33 34  2  0
 33 35  1  0
 15  4  1  0
 14  7  1  0
 21 16  1  0
M  END
>  <pIC50>  (262) 
5.82

>  <ChEMBL_ID>  (262) 
CHEMBL423985

>  <document_journal>  (262) 
J. Med. Chem.

>  <bao_endpoint>  (262) 
BAO_0000190

>  <potential_duplicate>  (262) 
False

>  <uo_units>  (262) 
UO_0000065

>  <canonical_smiles>  (262) 
CN(Cc1cnc2nc(N)nc(N)c2n1)c3ccc(cc3)C(=O)NC(CC(F)(F)C(=O)O)C(=O)O

>  <parent_molecule_chembl_id>  (262) 
CHEMBL423985

>  <assay_type>  (262) 
B

>  <src_id>  (262) 
1

>  <ligand_efficiency>  (262) 
{u'le': u'0.23', u'bei': u'11.86', u'sei': u'2.76', u'lle': u'5.31'}

>  <standard_flag>  (262) 
True

>  <molecule_chembl_id>  (262) 
CHEMBL423985

>  <target_organism>  (262) 
Homo sapiens

>  <standard_units>  (262) 
nM

>  <record_id>  (262) 
318257

>  <document_chembl_id>  (262) 
CHEMBL1129301

>  <bao_format>  (262) 
BAO_0000219

>  <data_validity_description>  (262) 
None

>  <activity_id>  (262) 
1021454

>  <standard_type>  (262) 
IC50

>  <target_chembl_id>  (262) 
CHEMBL202

>  <data_validity_comment>  (262) 
None

>  <published_value>  (262) 
1.53

>  <document_year>  (262) 
1996

>  <target_pref_name>  (262) 
Dihydrofolate reductase

>  <assay_chembl_id>  (262) 
CHEMBL668439

>  <standard_relation>  (262) 
=

>  <assay_description>  (262) 
Inhibitory activity against purified human dihydrofolate reductase (DHFR) in human leukemia cells (CCRF-CEM)

>  <published_relation>  (262) 
=

>  <standard_value>  (262) 
1530

>  <qudt_units>  (262) 
http://www.openphacts.org/units/Nanomolar

>  <target_tax_id>  (262) 
9606

>  <bao_label>  (262) 
cell-based format

>  <published_units>  (262) 
uM

>  <pchembl_value>  (262) 
5.82

>  <published_type>  (262) 
IC50

>  <activity_comment>  (262) 
None

$$$$

     RDKit          

 32 36  0  0  0  0  0  0  0  0999 V2000
    0.0000    0.0000    0.0000 C   0  0  0  0  0  0  0  0  0  0  0  0
    0.0000    0.0000    0.0000 C   0  0  0  0  0  0  0  0  0  0  0  0
    0.0000    0.0000    0.0000 N   0  0  0  0  0  0  0  0  0  0  0  0
    0.0000    0.0000    0.0000 C   0  0  0  0  0  0  0  0  0  0  0  0
    0.0000    0.0000    0.0000 C   0  0  0  0  0  0  0  0  0  0  0  0
    0.0000    0.0000    0.0000 C   0  0  0  0  0  0  0  0  0  0  0  0
    0.0000    0.0000    0.0000 N   0  0  0  0  0  0  0  0  0  0  0  0
    0.0000    0.0000    0.0000 C   0  0  0  0  0  0  0  0  0  0  0  0
    0.0000    0.0000    0.0000 N   0  0  0  0  0  0  0  0  0  0  0  0
    0.0000    0.0000    0.0000 N   0  0  0  0  0  0  0  0  0  0  0  0
    0.0000    0.0000    0.0000 C   0  0  0  0  0  0  0  0  0  0  0  0
    0.0000    0.0000    0.0000 N   0  0  0  0  0  0  0  0  0  0  0  0
    0.0000    0.0000    0.0000 C   0  0  0  0  0  0  0  0  0  0  0  0
    0.0000    0.0000    0.0000 C   0  0  0  0  0  0  0  0  0  0  0  0
    0.0000    0.0000    0.0000 N   0  0  0  0  0  0  0  0  0  0  0  0
    0.0000    0.0000    0.0000 C   0  0  0  0  0  0  0  0  0  0  0  0
    0.0000    0.0000    0.0000 C   0  0  0  0  0  0  0  0  0  0  0  0
    0.0000    0.0000    0.0000 C   0  0  0  0  0  0  0  0  0  0  0  0
    0.0000    0.0000    0.0000 C   0  0  0  0  0  0  0  0  0  0  0  0
    0.0000    0.0000    0.0000 C   0  0  0  0  0  0  0  0  0  0  0  0
    0.0000    0.0000    0.0000 C   0  0  0  0  0  0  0  0  0  0  0  0
    0.0000    0.0000    0.0000 C   0  0  0  0  0  0  0  0  0  0  0  0
    0.0000    0.0000    0.0000 C   0  0  0  0  0  0  0  0  0  0  0  0
    0.0000    0.0000    0.0000 C   0  0  0  0  0  0  0  0  0  0  0  0
    0.0000    0.0000    0.0000 C   0  0  0  0  0  0  0  0  0  0  0  0
    0.0000    0.0000    0.0000 C   0  0  0  0  0  0  0  0  0  0  0  0
    0.0000    0.0000    0.0000 C   0  0  0  0  0  0  0  0  0  0  0  0
    0.0000    0.0000    0.0000 C   0  0  0  0  0  0  0  0  0  0  0  0
    0.0000    0.0000    0.0000 C   0  0  0  0  0  0  0  0  0  0  0  0
    0.0000    0.0000    0.0000 C   0  0  0  0  0  0  0  0  0  0  0  0
    0.0000    0.0000    0.0000 C   0  0  0  0  0  0  0  0  0  0  0  0
    0.0000    0.0000    0.0000 C   0  0  0  0  0  0  0  0  0  0  0  0
  1  2  1  0
  2  3  1  0
  3  4  1  0
  4  5  1  0
  5  6  2  0
  6  7  1  0
  7  8  2  0
  8  9  1  0
  8 10  1  0
 10 11  2  0
 11 12  1  0
  3 13  1  0
 13 14  1  0
 14 15  1  0
 15 16  1  0
 16 17  2  0
 17 18  1  0
 18 19  1  0
 19 20  1  0
 20 21  2  0
 21 22  1  0
 22 23  2  0
 23 24  1  0
 24 25  2  0
 18 26  2  0
 26 27  1  0
 27 28  2  0
 28 29  1  0
 29 30  2  0
 30 31  1  0
 31 32  2  0
 16  2  1  0
 11  5  1  0
 26 15  1  0
 25 20  1  0
 32 27  1  0
M  END
>  <pIC50>  (263) 
5.78666666667

>  <ChEMBL_ID>  (263) 
CHEMBL77758

>  <document_journal>  (263) 
J. Med. Chem.

>  <bao_endpoint>  (263) 
BAO_0000190

>  <potential_duplicate>  (263) 
False

>  <uo_units>  (263) 
UO_0000065

>  <canonical_smiles>  (263) 
CC1N(Cc2cnc(N)nc2N)CCn3c1cc(Cc4ccccc4)c3c5ccccc5

>  <parent_molecule_chembl_id>  (263) 
CHEMBL77758

>  <assay_type>  (263) 
B

>  <src_id>  (263) 
1

>  <ligand_efficiency>  (263) 
{u'le': u'0.27', u'bei': u'14.95', u'sei': u'7.38', u'lle': u'1.61'}

>  <standard_flag>  (263) 
True

>  <molecule_chembl_id>  (263) 
CHEMBL77758

>  <target_organism>  (263) 
Homo sapiens

>  <standard_units>  (263) 
nM

>  <record_id>  (263) 
134025

>  <document_chembl_id>  (263) 
CHEMBL1145982

>  <bao_format>  (263) 
BAO_0000357

>  <data_validity_description>  (263) 
None

>  <activity_id>  (263) 
1035325

>  <standard_type>  (263) 
IC50

>  <target_chembl_id>  (263) 
CHEMBL202

>  <data_validity_comment>  (263) 
None

>  <published_value>  (263) 
0.45

>  <document_year>  (263) 
2003

>  <target_pref_name>  (263) 
Dihydrofolate reductase

>  <assay_chembl_id>  (263) 
CHEMBL665665

>  <standard_relation>  (263) 
=

>  <assay_description>  (263) 
Antibacterial activity of TMP-susceptible Dihydrofolate reductase against Staphylococcus pneumoniae ATCC 49619

>  <published_relation>  (263) 
=

>  <standard_value>  (263) 
450

>  <qudt_units>  (263) 
http://www.openphacts.org/units/Nanomolar

>  <target_tax_id>  (263) 
9606

>  <bao_label>  (263) 
single protein format

>  <published_units>  (263) 
uM

>  <pchembl_value>  (263) 
6.35

>  <published_type>  (263) 
IC50

>  <activity_comment>  (263) 
None

$$$$

     RDKit          

 25 28  0  0  0  0  0  0  0  0999 V2000
    0.0000    0.0000    0.0000 C   0  0  0  0  0  0  0  0  0  0  0  0
    0.0000    0.0000    0.0000 O   0  0  0  0  0  0  0  0  0  0  0  0
    0.0000    0.0000    0.0000 C   0  0  0  0  0  0  0  0  0  0  0  0
    0.0000    0.0000    0.0000 C   0  0  0  0  0  0  0  0  0  0  0  0
    0.0000    0.0000    0.0000 C   0  0  0  0  0  0  0  0  0  0  0  0
    0.0000    0.0000    0.0000 C   0  0  0  0  0  0  0  0  0  0  0  0
    0.0000    0.0000    0.0000 C   0  0  0  0  0  0  0  0  0  0  0  0
    0.0000    0.0000    0.0000 N   0  0  0  0  0  0  0  0  0  0  0  0
    0.0000    0.0000    0.0000 C   0  0  0  0  0  0  0  0  0  0  0  0
    0.0000    0.0000    0.0000 C   0  0  0  0  0  0  0  0  0  0  0  0
    0.0000    0.0000    0.0000 C   0  0  0  0  0  0  0  0  0  0  0  0
    0.0000    0.0000    0.0000 N   0  0  0  0  0  0  0  0  0  0  0  0
    0.0000    0.0000    0.0000 C   0  0  0  0  0  0  0  0  0  0  0  0
    0.0000    0.0000    0.0000 N   0  0  0  0  0  0  0  0  0  0  0  0
    0.0000    0.0000    0.0000 N   0  0  0  0  0  0  0  0  0  0  0  0
    0.0000    0.0000    0.0000 C   0  0  0  0  0  0  0  0  0  0  0  0
    0.0000    0.0000    0.0000 N   0  0  0  0  0  0  0  0  0  0  0  0
    0.0000    0.0000    0.0000 C   0  0  0  0  0  0  0  0  0  0  0  0
    0.0000    0.0000    0.0000 C   0  0  0  0  0  0  0  0  0  0  0  0
    0.0000    0.0000    0.0000 C   0  0  0  0  0  0  0  0  0  0  0  0
    0.0000    0.0000    0.0000 C   0  0  0  0  0  0  0  0  0  0  0  0
    0.0000    0.0000    0.0000 O   0  0  0  0  0  0  0  0  0  0  0  0
    0.0000    0.0000    0.0000 C   0  0  0  0  0  0  0  0  0  0  0  0
    0.0000    0.0000    0.0000 O   0  0  0  0  0  0  0  0  0  0  0  0
    0.0000    0.0000    0.0000 C   0  0  0  0  0  0  0  0  0  0  0  0
  1  2  1  0
  2  3  1  0
  3  4  2  0
  4  5  1  0
  5  6  1  0
  6  7  1  0
  7  8  1  0
  8  9  1  0
  9 10  1  0
 10 11  2  0
 11 12  1  0
 12 13  2  0
 13 14  1  0
 13 15  1  0
 15 16  2  0
 16 17  1  0
  8 18  1  0
 18 19  1  0
 18 20  1  0
 20 21  1  0
 21 22  1  0
 22 23  1  0
 23 24  1  0
 24 25  1  0
 25  3  1  0
 20  5  2  0
 16 10  1  0
 25 21  2  0
M  END
>  <pIC50>  (264) 
7.49333333333

>  <ChEMBL_ID>  (264) 
CHEMBL310468

>  <document_journal>  (264) 
J. Med. Chem.

>  <bao_endpoint>  (264) 
BAO_0000190

>  <potential_duplicate>  (264) 
False

>  <uo_units>  (264) 
UO_0000065

>  <canonical_smiles>  (264) 
COc1cc2CCN(Cc3cnc(N)nc3N)[C@H](C)c2c4OCOc14

>  <parent_molecule_chembl_id>  (264) 
CHEMBL310468

>  <assay_type>  (264) 
B

>  <src_id>  (264) 
1

>  <ligand_efficiency>  (264) 
{u'le': u'0.44', u'bei': u'23.32', u'sei': u'7.36', u'lle': u'6.53'}

>  <standard_flag>  (264) 
True

>  <molecule_chembl_id>  (264) 
CHEMBL310468

>  <target_organism>  (264) 
Homo sapiens

>  <standard_units>  (264) 
nM

>  <record_id>  (264) 
134026

>  <document_chembl_id>  (264) 
CHEMBL1145982

>  <bao_format>  (264) 
BAO_0000357

>  <data_validity_description>  (264) 
None

>  <activity_id>  (264) 
1036565

>  <standard_type>  (264) 
IC50

>  <target_chembl_id>  (264) 
CHEMBL202

>  <data_validity_comment>  (264) 
None

>  <published_value>  (264) 
0.0098

>  <document_year>  (264) 
2003

>  <target_pref_name>  (264) 
Dihydrofolate reductase

>  <assay_chembl_id>  (264) 
CHEMBL665666

>  <standard_relation>  (264) 
=

>  <assay_description>  (264) 
Antibacterial activity against TMP-susceptible Dihydrofolate reductase from Staphylococcus pneumoniae ATCC 49619

>  <published_relation>  (264) 
=

>  <standard_value>  (264) 
9.8

>  <qudt_units>  (264) 
http://www.openphacts.org/units/Nanomolar

>  <target_tax_id>  (264) 
9606

>  <bao_label>  (264) 
single protein format

>  <published_units>  (264) 
uM

>  <pchembl_value>  (264) 
8.01

>  <published_type>  (264) 
IC50

>  <activity_comment>  (264) 
None

$$$$

     RDKit          

 28 32  0  0  0  0  0  0  0  0999 V2000
    0.0000    0.0000    0.0000 C   0  0  0  0  0  0  0  0  0  0  0  0
    0.0000    0.0000    0.0000 C   0  0  0  0  0  0  0  0  0  0  0  0
    0.0000    0.0000    0.0000 N   0  0  0  0  0  0  0  0  0  0  0  0
    0.0000    0.0000    0.0000 C   0  0  0  0  0  0  0  0  0  0  0  0
    0.0000    0.0000    0.0000 C   0  0  0  0  0  0  0  0  0  0  0  0
    0.0000    0.0000    0.0000 C   0  0  0  0  0  0  0  0  0  0  0  0
    0.0000    0.0000    0.0000 N   0  0  0  0  0  0  0  0  0  0  0  0
    0.0000    0.0000    0.0000 C   0  0  0  0  0  0  0  0  0  0  0  0
    0.0000    0.0000    0.0000 N   0  0  0  0  0  0  0  0  0  0  0  0
    0.0000    0.0000    0.0000 N   0  0  0  0  0  0  0  0  0  0  0  0
    0.0000    0.0000    0.0000 C   0  0  0  0  0  0  0  0  0  0  0  0
    0.0000    0.0000    0.0000 N   0  0  0  0  0  0  0  0  0  0  0  0
    0.0000    0.0000    0.0000 C   0  0  0  0  0  0  0  0  0  0  0  0
    0.0000    0.0000    0.0000 C   0  0  0  0  0  0  0  0  0  0  0  0
    0.0000    0.0000    0.0000 C   0  0  0  0  0  0  0  0  0  0  0  0
    0.0000    0.0000    0.0000 C   0  0  0  0  0  0  0  0  0  0  0  0
    0.0000    0.0000    0.0000 C   0  0  0  0  0  0  0  0  0  0  0  0
    0.0000    0.0000    0.0000 C   0  0  0  0  0  0  0  0  0  0  0  0
    0.0000    0.0000    0.0000 C   0  0  0  0  0  0  0  0  0  0  0  0
    0.0000    0.0000    0.0000 C   0  0  0  0  0  0  0  0  0  0  0  0
    0.0000    0.0000    0.0000 C   0  0  0  0  0  0  0  0  0  0  0  0
    0.0000    0.0000    0.0000 C   0  0  0  0  0  0  0  0  0  0  0  0
    0.0000    0.0000    0.0000 C   0  0  0  0  0  0  0  0  0  0  0  0
    0.0000    0.0000    0.0000 C   0  0  0  0  0  0  0  0  0  0  0  0
    0.0000    0.0000    0.0000 C   0  0  0  0  0  0  0  0  0  0  0  0
    0.0000    0.0000    0.0000 N   0  0  0  0  0  0  0  0  0  0  0  0
    0.0000    0.0000    0.0000 C   0  0  0  0  0  0  0  0  0  0  0  0
    0.0000    0.0000    0.0000 C   0  0  0  0  0  0  0  0  0  0  0  0
  1  2  1  0
  2  3  1  0
  3  4  1  0
  4  5  1  0
  5  6  2  0
  6  7  1  0
  7  8  2  0
  8  9  1  0
  8 10  1  0
 10 11  2  0
 11 12  1  0
  3 13  1  0
 13 14  1  0
 14 15  1  0
 15 16  2  0
 16 17  1  0
 17 18  2  0
 18 19  1  0
 19 20  1  0
 20 21  2  0
 21 22  1  0
 22 23  2  0
 23 24  1  0
 24 25  2  0
 25 26  1  0
 26 27  1  0
 26 28  1  0
 16  2  1  0
 11  5  1  0
 28 15  1  0
 28 19  2  0
 25 20  1  0
M  END
>  <pIC50>  (265) 
7.82333333333

>  <ChEMBL_ID>  (265) 
CHEMBL308758

>  <document_journal>  (265) 
J. Med. Chem.

>  <bao_endpoint>  (265) 
BAO_0000190

>  <potential_duplicate>  (265) 
False

>  <uo_units>  (265) 
UO_0000065

>  <canonical_smiles>  (265) 
CC1N(Cc2cnc(N)nc2N)CCc3c1ccc4c5ccccc5n(C)c34

>  <parent_molecule_chembl_id>  (265) 
CHEMBL308758

>  <assay_type>  (265) 
B

>  <src_id>  (265) 
1

>  <ligand_efficiency>  (265) 
{u'le': u'0.41', u'bei': u'22.55', u'sei': u'9.77', u'lle': u'4.97'}

>  <standard_flag>  (265) 
True

>  <molecule_chembl_id>  (265) 
CHEMBL308758

>  <target_organism>  (265) 
Homo sapiens

>  <standard_units>  (265) 
nM

>  <record_id>  (265) 
134022

>  <document_chembl_id>  (265) 
CHEMBL1145982

>  <bao_format>  (265) 
BAO_0000357

>  <data_validity_description>  (265) 
None

>  <activity_id>  (265) 
1038844

>  <standard_type>  (265) 
IC50

>  <target_chembl_id>  (265) 
CHEMBL202

>  <data_validity_comment>  (265) 
None

>  <published_value>  (265) 
0.004

>  <document_year>  (265) 
2003

>  <target_pref_name>  (265) 
Dihydrofolate reductase

>  <assay_chembl_id>  (265) 
CHEMBL665665

>  <standard_relation>  (265) 
=

>  <assay_description>  (265) 
Antibacterial activity of TMP-susceptible Dihydrofolate reductase against Staphylococcus pneumoniae ATCC 49619

>  <published_relation>  (265) 
=

>  <standard_value>  (265) 
4

>  <qudt_units>  (265) 
http://www.openphacts.org/units/Nanomolar

>  <target_tax_id>  (265) 
9606

>  <bao_label>  (265) 
single protein format

>  <published_units>  (265) 
uM

>  <pchembl_value>  (265) 
8.4

>  <published_type>  (265) 
IC50

>  <activity_comment>  (265) 
None

$$$$

     RDKit          

 22 25  0  0  0  0  0  0  0  0999 V2000
    0.0000    0.0000    0.0000 N   0  0  0  0  0  0  0  0  0  0  0  0
    0.0000    0.0000    0.0000 C   0  0  0  0  0  0  0  0  0  0  0  0
    0.0000    0.0000    0.0000 N   0  0  0  0  0  0  0  0  0  0  0  0
    0.0000    0.0000    0.0000 C   0  0  0  0  0  0  0  0  0  0  0  0
    0.0000    0.0000    0.0000 C   0  0  0  0  0  0  0  0  0  0  0  0
    0.0000    0.0000    0.0000 C   0  0  0  0  0  0  0  0  0  0  0  0
    0.0000    0.0000    0.0000 N   0  0  0  0  0  0  0  0  0  0  0  0
    0.0000    0.0000    0.0000 C   0  0  0  0  0  0  0  0  0  0  0  0
    0.0000    0.0000    0.0000 C   0  0  0  0  0  0  0  0  0  0  0  0
    0.0000    0.0000    0.0000 C   0  0  0  0  0  0  0  0  0  0  0  0
    0.0000    0.0000    0.0000 C   0  0  0  0  0  0  0  0  0  0  0  0
    0.0000    0.0000    0.0000 C   0  0  0  0  0  0  0  0  0  0  0  0
    0.0000    0.0000    0.0000 N   0  0  0  0  0  0  0  0  0  0  0  0
    0.0000    0.0000    0.0000 C   0  0  0  0  0  0  0  0  0  0  0  0
    0.0000    0.0000    0.0000 C   0  0  0  0  0  0  0  0  0  0  0  0
    0.0000    0.0000    0.0000 C   0  0  0  0  0  0  0  0  0  0  0  0
    0.0000    0.0000    0.0000 C   0  0  0  0  0  0  0  0  0  0  0  0
    0.0000    0.0000    0.0000 C   0  0  0  0  0  0  0  0  0  0  0  0
    0.0000    0.0000    0.0000 C   0  0  0  0  0  0  0  0  0  0  0  0
    0.0000    0.0000    0.0000 C   0  0  0  0  0  0  0  0  0  0  0  0
    0.0000    0.0000    0.0000 N   0  0  0  0  0  0  0  0  0  0  0  0
    0.0000    0.0000    0.0000 N   0  0  0  0  0  0  0  0  0  0  0  0
  1  2  1  0
  2  3  2  0
  3  4  1  0
  4  5  2  0
  5  6  1  0
  6  7  1  0
  7  8  1  0
  8  9  1  0
  9 10  1  0
 10 11  2  0
 11 12  1  0
 11 13  1  0
 13 14  1  0
 14 15  2  0
 15 16  1  0
 16 17  2  0
 17 18  1  0
 18 19  2  0
  5 20  1  0
 20 21  1  0
 20 22  2  0
 22  2  1  0
 12  7  1  0
 19 10  1  0
 19 14  1  0
M  END
>  <pIC50>  (266) 
7.865

>  <ChEMBL_ID>  (266) 
CHEMBL75944

>  <document_journal>  (266) 
J. Med. Chem.

>  <bao_endpoint>  (266) 
BAO_0000190

>  <potential_duplicate>  (266) 
False

>  <uo_units>  (266) 
UO_0000065

>  <canonical_smiles>  (266) 
Nc1ncc(CN2CCc3c(C2)[nH]c4ccccc34)c(N)n1

>  <parent_molecule_chembl_id>  (266) 
CHEMBL75944

>  <assay_type>  (266) 
B

>  <src_id>  (266) 
1

>  <ligand_efficiency>  (266) 
{u'le': u'0.52', u'bei': u'28.53', u'sei': u'8.67', u'lle': u'6.68'}

>  <standard_flag>  (266) 
True

>  <molecule_chembl_id>  (266) 
CHEMBL75944

>  <target_organism>  (266) 
Homo sapiens

>  <standard_units>  (266) 
nM

>  <record_id>  (266) 
134023

>  <document_chembl_id>  (266) 
CHEMBL1145982

>  <bao_format>  (266) 
BAO_0000357

>  <data_validity_description>  (266) 
None

>  <activity_id>  (266) 
1042347

>  <standard_type>  (266) 
IC50

>  <target_chembl_id>  (266) 
CHEMBL202

>  <data_validity_comment>  (266) 
None

>  <published_value>  (266) 
0.004

>  <document_year>  (266) 
2003

>  <target_pref_name>  (266) 
Dihydrofolate reductase

>  <assay_chembl_id>  (266) 
CHEMBL665665

>  <standard_relation>  (266) 
=

>  <assay_description>  (266) 
Antibacterial activity of TMP-susceptible Dihydrofolate reductase against Staphylococcus pneumoniae ATCC 49619

>  <published_relation>  (266) 
=

>  <standard_value>  (266) 
4

>  <qudt_units>  (266) 
http://www.openphacts.org/units/Nanomolar

>  <target_tax_id>  (266) 
9606

>  <bao_label>  (266) 
single protein format

>  <published_units>  (266) 
uM

>  <pchembl_value>  (266) 
8.4

>  <published_type>  (266) 
IC50

>  <activity_comment>  (266) 
None

$$$$

     RDKit          

 31 34  0  0  0  0  0  0  0  0999 V2000
    0.0000    0.0000    0.0000 C   0  0  0  0  0  0  0  0  0  0  0  0
    0.0000    0.0000    0.0000 O   0  0  0  0  0  0  0  0  0  0  0  0
    0.0000    0.0000    0.0000 C   0  0  0  0  0  0  0  0  0  0  0  0
    0.0000    0.0000    0.0000 C   0  0  0  0  0  0  0  0  0  0  0  0
    0.0000    0.0000    0.0000 C   0  0  0  0  0  0  0  0  0  0  0  0
    0.0000    0.0000    0.0000 C   0  0  0  0  0  0  0  0  0  0  0  0
    0.0000    0.0000    0.0000 N   0  0  0  0  0  0  0  0  0  0  0  0
    0.0000    0.0000    0.0000 C   0  0  0  0  0  0  0  0  0  0  0  0
    0.0000    0.0000    0.0000 C   0  0  0  0  0  0  0  0  0  0  0  0
    0.0000    0.0000    0.0000 C   0  0  0  0  0  0  0  0  0  0  0  0
    0.0000    0.0000    0.0000 N   0  0  0  0  0  0  0  0  0  0  0  0
    0.0000    0.0000    0.0000 C   0  0  0  0  0  0  0  0  0  0  0  0
    0.0000    0.0000    0.0000 N   0  0  0  0  0  0  0  0  0  0  0  0
    0.0000    0.0000    0.0000 N   0  0  0  0  0  0  0  0  0  0  0  0
    0.0000    0.0000    0.0000 C   0  0  0  0  0  0  0  0  0  0  0  0
    0.0000    0.0000    0.0000 N   0  0  0  0  0  0  0  0  0  0  0  0
    0.0000    0.0000    0.0000 C   0  0  0  0  0  0  0  0  0  0  0  0
    0.0000    0.0000    0.0000 C   0  0  0  0  0  0  0  0  0  0  0  0
    0.0000    0.0000    0.0000 C   0  0  0  0  0  0  0  0  0  0  0  0
    0.0000    0.0000    0.0000 C   0  0  0  0  0  0  0  0  0  0  0  0
    0.0000    0.0000    0.0000 C   0  0  0  0  0  0  0  0  0  0  0  0
    0.0000    0.0000    0.0000 C   0  0  0  0  0  0  0  0  0  0  0  0
    0.0000    0.0000    0.0000 Cl  0  0  0  0  0  0  0  0  0  0  0  0
    0.0000    0.0000    0.0000 C   0  0  0  0  0  0  0  0  0  0  0  0
    0.0000    0.0000    0.0000 C   0  0  0  0  0  0  0  0  0  0  0  0
    0.0000    0.0000    0.0000 Cl  0  0  0  0  0  0  0  0  0  0  0  0
    0.0000    0.0000    0.0000 C   0  0  0  0  0  0  0  0  0  0  0  0
    0.0000    0.0000    0.0000 C   0  0  0  0  0  0  0  0  0  0  0  0
    0.0000    0.0000    0.0000 C   0  0  0  0  0  0  0  0  0  0  0  0
    0.0000    0.0000    0.0000 O   0  0  0  0  0  0  0  0  0  0  0  0
    0.0000    0.0000    0.0000 C   0  0  0  0  0  0  0  0  0  0  0  0
  1  2  1  0
  2  3  1  0
  3  4  2  0
  4  5  1  0
  5  6  1  0
  6  7  1  0
  7  8  1  0
  8  9  1  0
  9 10  2  0
 10 11  1  0
 11 12  2  0
 12 13  1  0
 12 14  1  0
 14 15  2  0
 15 16  1  0
  7 17  1  0
 17 18  1  0
 18 19  1  0
 19 20  2  0
 20 21  1  0
 21 22  2  0
 22 23  1  0
 22 24  1  0
 24 25  2  0
 25 26  1  0
 18 27  1  0
 27 28  1  0
 28 29  2  0
 29 30  1  0
 30 31  1  0
 29  3  1  0
 27  5  2  0
 15  9  1  0
 25 19  1  0
M  END
>  <pIC50>  (267) 
7.14666666667

>  <ChEMBL_ID>  (267) 
CHEMBL305656

>  <document_journal>  (267) 
J. Med. Chem.

>  <bao_endpoint>  (267) 
BAO_0000190

>  <potential_duplicate>  (267) 
False

>  <uo_units>  (267) 
UO_0000065

>  <canonical_smiles>  (267) 
COc1cc2CN(Cc3cnc(N)nc3N)CC(c4ccc(Cl)cc4Cl)c2cc1OC

>  <parent_molecule_chembl_id>  (267) 
CHEMBL305656

>  <assay_type>  (267) 
B

>  <src_id>  (267) 
1

>  <ligand_efficiency>  (267) 
{u'le': u'0.36', u'bei': u'17.71', u'sei': u'8.19', u'lle': u'4.15'}

>  <standard_flag>  (267) 
True

>  <molecule_chembl_id>  (267) 
CHEMBL305656

>  <target_organism>  (267) 
Homo sapiens

>  <standard_units>  (267) 
nM

>  <record_id>  (267) 
134016

>  <document_chembl_id>  (267) 
CHEMBL1145982

>  <bao_format>  (267) 
BAO_0000357

>  <data_validity_description>  (267) 
None

>  <activity_id>  (267) 
1046331

>  <standard_type>  (267) 
IC50

>  <target_chembl_id>  (267) 
CHEMBL202

>  <data_validity_comment>  (267) 
None

>  <published_value>  (267) 
0.007

>  <document_year>  (267) 
2003

>  <target_pref_name>  (267) 
Dihydrofolate reductase

>  <assay_chembl_id>  (267) 
CHEMBL665666

>  <standard_relation>  (267) 
=

>  <assay_description>  (267) 
Antibacterial activity against TMP-susceptible Dihydrofolate reductase from Staphylococcus pneumoniae ATCC 49619

>  <published_relation>  (267) 
=

>  <standard_value>  (267) 
7

>  <qudt_units>  (267) 
http://www.openphacts.org/units/Nanomolar

>  <target_tax_id>  (267) 
9606

>  <bao_label>  (267) 
single protein format

>  <published_units>  (267) 
uM

>  <pchembl_value>  (267) 
8.16

>  <published_type>  (267) 
IC50

>  <activity_comment>  (267) 
None

$$$$

     RDKit          

 25 28  0  0  0  0  0  0  0  0999 V2000
    0.0000    0.0000    0.0000 C   0  0  0  0  0  0  0  0  0  0  0  0
    0.0000    0.0000    0.0000 O   0  0  0  0  0  0  0  0  0  0  0  0
    0.0000    0.0000    0.0000 C   0  0  0  0  0  0  0  0  0  0  0  0
    0.0000    0.0000    0.0000 C   0  0  0  0  0  0  0  0  0  0  0  0
    0.0000    0.0000    0.0000 C   0  0  0  0  0  0  0  0  0  0  0  0
    0.0000    0.0000    0.0000 C   0  0  0  0  0  0  0  0  0  0  0  0
    0.0000    0.0000    0.0000 C   0  0  0  0  0  0  0  0  0  0  0  0
    0.0000    0.0000    0.0000 N   0  0  0  0  0  0  0  0  0  0  0  0
    0.0000    0.0000    0.0000 C   0  0  0  0  0  0  0  0  0  0  0  0
    0.0000    0.0000    0.0000 C   0  0  0  0  0  0  0  0  0  0  0  0
    0.0000    0.0000    0.0000 C   0  0  0  0  0  0  0  0  0  0  0  0
    0.0000    0.0000    0.0000 N   0  0  0  0  0  0  0  0  0  0  0  0
    0.0000    0.0000    0.0000 C   0  0  0  0  0  0  0  0  0  0  0  0
    0.0000    0.0000    0.0000 N   0  0  0  0  0  0  0  0  0  0  0  0
    0.0000    0.0000    0.0000 N   0  0  0  0  0  0  0  0  0  0  0  0
    0.0000    0.0000    0.0000 C   0  0  0  0  0  0  0  0  0  0  0  0
    0.0000    0.0000    0.0000 N   0  0  0  0  0  0  0  0  0  0  0  0
    0.0000    0.0000    0.0000 C   0  0  0  0  0  0  0  0  0  0  0  0
    0.0000    0.0000    0.0000 C   0  0  0  0  0  0  0  0  0  0  0  0
    0.0000    0.0000    0.0000 C   0  0  0  0  0  0  0  0  0  0  0  0
    0.0000    0.0000    0.0000 C   0  0  0  0  0  0  0  0  0  0  0  0
    0.0000    0.0000    0.0000 O   0  0  0  0  0  0  0  0  0  0  0  0
    0.0000    0.0000    0.0000 C   0  0  0  0  0  0  0  0  0  0  0  0
    0.0000    0.0000    0.0000 O   0  0  0  0  0  0  0  0  0  0  0  0
    0.0000    0.0000    0.0000 C   0  0  0  0  0  0  0  0  0  0  0  0
  1  2  1  0
  2  3  1  0
  3  4  2  0
  4  5  1  0
  5  6  1  0
  6  7  1  0
  7  8  1  0
  8  9  1  0
  9 10  1  0
 10 11  2  0
 11 12  1  0
 12 13  2  0
 13 14  1  0
 13 15  1  0
 15 16  2  0
 16 17  1  0
  8 18  1  0
 18 19  1  0
 18 20  1  0
 20 21  1  0
 21 22  1  0
 22 23  1  0
 23 24  1  0
 24 25  1  0
 25  3  1  0
 20  5  2  0
 16 10  1  0
 25 21  2  0
M  END
>  <pIC50>  (268) 
7.13

>  <ChEMBL_ID>  (268) 
CHEMBL77608

>  <document_journal>  (268) 
J. Med. Chem.

>  <bao_endpoint>  (268) 
BAO_0000190

>  <potential_duplicate>  (268) 
False

>  <uo_units>  (268) 
UO_0000065

>  <canonical_smiles>  (268) 
COc1cc2CCN(Cc3cnc(N)nc3N)C(C)c2c4OCOc14

>  <parent_molecule_chembl_id>  (268) 
CHEMBL77608

>  <assay_type>  (268) 
B

>  <src_id>  (268) 
1

>  <ligand_efficiency>  (268) 
{u'le': u'0.43', u'bei': u'23.07', u'sei': u'7.28', u'lle': u'6.44'}

>  <standard_flag>  (268) 
True

>  <molecule_chembl_id>  (268) 
CHEMBL77608

>  <target_organism>  (268) 
Homo sapiens

>  <standard_units>  (268) 
nM

>  <record_id>  (268) 
134017

>  <document_chembl_id>  (268) 
CHEMBL1145982

>  <bao_format>  (268) 
BAO_0000357

>  <data_validity_description>  (268) 
None

>  <activity_id>  (268) 
1047464

>  <standard_type>  (268) 
IC50

>  <target_chembl_id>  (268) 
CHEMBL202

>  <data_validity_comment>  (268) 
None

>  <published_value>  (268) 
0.012

>  <document_year>  (268) 
2003

>  <target_pref_name>  (268) 
Dihydrofolate reductase

>  <assay_chembl_id>  (268) 
CHEMBL665666

>  <standard_relation>  (268) 
=

>  <assay_description>  (268) 
Antibacterial activity against TMP-susceptible Dihydrofolate reductase from Staphylococcus pneumoniae ATCC 49619

>  <published_relation>  (268) 
=

>  <standard_value>  (268) 
12

>  <qudt_units>  (268) 
http://www.openphacts.org/units/Nanomolar

>  <target_tax_id>  (268) 
9606

>  <bao_label>  (268) 
single protein format

>  <published_units>  (268) 
uM

>  <pchembl_value>  (268) 
7.92

>  <published_type>  (268) 
IC50

>  <activity_comment>  (268) 
None

$$$$

     RDKit          

 30 33  0  0  0  0  0  0  0  0999 V2000
    0.0000    0.0000    0.0000 C   0  0  0  0  0  0  0  0  0  0  0  0
    0.0000    0.0000    0.0000 O   0  0  0  0  0  0  0  0  0  0  0  0
    0.0000    0.0000    0.0000 C   0  0  0  0  0  0  0  0  0  0  0  0
    0.0000    0.0000    0.0000 C   0  0  0  0  0  0  0  0  0  0  0  0
    0.0000    0.0000    0.0000 C   0  0  0  0  0  0  0  0  0  0  0  0
    0.0000    0.0000    0.0000 C   0  0  0  0  0  0  0  0  0  0  0  0
    0.0000    0.0000    0.0000 C   0  0  0  0  0  0  0  0  0  0  0  0
    0.0000    0.0000    0.0000 C   0  0  0  0  0  0  0  0  0  0  0  0
    0.0000    0.0000    0.0000 N   0  0  0  0  0  0  0  0  0  0  0  0
    0.0000    0.0000    0.0000 C   0  0  0  0  0  0  0  0  0  0  0  0
    0.0000    0.0000    0.0000 C   0  0  0  0  0  0  0  0  0  0  0  0
    0.0000    0.0000    0.0000 C   0  0  0  0  0  0  0  0  0  0  0  0
    0.0000    0.0000    0.0000 N   0  0  0  0  0  0  0  0  0  0  0  0
    0.0000    0.0000    0.0000 C   0  0  0  0  0  0  0  0  0  0  0  0
    0.0000    0.0000    0.0000 N   0  0  0  0  0  0  0  0  0  0  0  0
    0.0000    0.0000    0.0000 N   0  0  0  0  0  0  0  0  0  0  0  0
    0.0000    0.0000    0.0000 C   0  0  0  0  0  0  0  0  0  0  0  0
    0.0000    0.0000    0.0000 N   0  0  0  0  0  0  0  0  0  0  0  0
    0.0000    0.0000    0.0000 C   0  0  0  0  0  0  0  0  0  0  0  0
    0.0000    0.0000    0.0000 C   0  0  0  0  0  0  0  0  0  0  0  0
    0.0000    0.0000    0.0000 C   0  0  0  0  0  0  0  0  0  0  0  0
    0.0000    0.0000    0.0000 C   0  0  0  0  0  0  0  0  0  0  0  0
    0.0000    0.0000    0.0000 C   0  0  0  0  0  0  0  0  0  0  0  0
    0.0000    0.0000    0.0000 C   0  0  0  0  0  0  0  0  0  0  0  0
    0.0000    0.0000    0.0000 C   0  0  0  0  0  0  0  0  0  0  0  0
    0.0000    0.0000    0.0000 C   0  0  0  0  0  0  0  0  0  0  0  0
    0.0000    0.0000    0.0000 C   0  0  0  0  0  0  0  0  0  0  0  0
    0.0000    0.0000    0.0000 N   0  0  0  0  0  0  0  0  0  0  0  0
    0.0000    0.0000    0.0000 O   0  0  0  0  0  0  0  0  0  0  0  0
    0.0000    0.0000    0.0000 O   0  0  0  0  0  0  0  0  0  0  0  0
  1  2  1  0
  2  3  1  0
  3  4  2  0
  4  5  1  0
  5  6  2  0
  6  7  1  0
  7  8  1  0
  8  9  1  0
  9 10  1  0
 10 11  1  0
 11 12  2  0
 12 13  1  0
 13 14  2  0
 14 15  1  0
 14 16  1  0
 16 17  2  0
 17 18  1  0
  9 19  1  0
 19 20  1  0
 20 21  2  0
  7 22  1  0
 22 23  2  0
 23 24  1  0
 24 25  2  0
 25 26  1  0
 26 27  2  0
 26 28  1  0
 28 29  2  0
 28 30  1  0
 21  3  1  0
 20  6  1  0
 17 11  1  0
 27 22  1  0
M  CHG  2  28   1  30  -1
M  END
>  <pIC50>  (269) 
6.49

>  <ChEMBL_ID>  (269) 
CHEMBL78104

>  <document_journal>  (269) 
J. Med. Chem.

>  <bao_endpoint>  (269) 
BAO_0000190

>  <potential_duplicate>  (269) 
False

>  <uo_units>  (269) 
UO_0000065

>  <canonical_smiles>  (269) 
COc1ccc2C(CN(Cc3cnc(N)nc3N)Cc2c1)c4cccc(c4)[N+](=O)[O-]

>  <parent_molecule_chembl_id>  (269) 
CHEMBL78104

>  <assay_type>  (269) 
B

>  <src_id>  (269) 
1

>  <ligand_efficiency>  (269) 
{u'le': u'0.37', u'bei': u'20.23', u'sei': u'6.04', u'lle': u'5.64'}

>  <standard_flag>  (269) 
True

>  <molecule_chembl_id>  (269) 
CHEMBL78104

>  <target_organism>  (269) 
Homo sapiens

>  <standard_units>  (269) 
nM

>  <record_id>  (269) 
134021

>  <document_chembl_id>  (269) 
CHEMBL1145982

>  <bao_format>  (269) 
BAO_0000357

>  <data_validity_description>  (269) 
None

>  <activity_id>  (269) 
1053445

>  <standard_type>  (269) 
IC50

>  <target_chembl_id>  (269) 
CHEMBL202

>  <data_validity_comment>  (269) 
None

>  <published_value>  (269) 
0.006

>  <document_year>  (269) 
2003

>  <target_pref_name>  (269) 
Dihydrofolate reductase

>  <assay_chembl_id>  (269) 
CHEMBL665665

>  <standard_relation>  (269) 
=

>  <assay_description>  (269) 
Antibacterial activity of TMP-susceptible Dihydrofolate reductase against Staphylococcus pneumoniae ATCC 49619

>  <published_relation>  (269) 
=

>  <standard_value>  (269) 
6

>  <qudt_units>  (269) 
http://www.openphacts.org/units/Nanomolar

>  <target_tax_id>  (269) 
9606

>  <bao_label>  (269) 
single protein format

>  <published_units>  (269) 
uM

>  <pchembl_value>  (269) 
8.22

>  <published_type>  (269) 
IC50

>  <activity_comment>  (269) 
None

$$$$

     RDKit          

 25 28  0  0  0  0  0  0  0  0999 V2000
    0.0000    0.0000    0.0000 C   0  0  0  0  0  0  0  0  0  0  0  0
    0.0000    0.0000    0.0000 S   0  0  0  0  0  0  0  0  0  0  0  0
    0.0000    0.0000    0.0000 C   0  0  0  0  0  0  0  0  0  0  0  0
    0.0000    0.0000    0.0000 C   0  0  0  0  0  0  0  0  0  0  0  0
    0.0000    0.0000    0.0000 C   0  0  0  0  0  0  0  0  0  0  0  0
    0.0000    0.0000    0.0000 N   0  0  0  0  0  0  0  0  0  0  0  0
    0.0000    0.0000    0.0000 C   0  0  0  0  0  0  0  0  0  0  0  0
    0.0000    0.0000    0.0000 C   0  0  0  0  0  0  0  0  0  0  0  0
    0.0000    0.0000    0.0000 C   0  0  0  0  0  0  0  0  0  0  0  0
    0.0000    0.0000    0.0000 N   0  0  0  0  0  0  0  0  0  0  0  0
    0.0000    0.0000    0.0000 C   0  0  0  0  0  0  0  0  0  0  0  0
    0.0000    0.0000    0.0000 N   0  0  0  0  0  0  0  0  0  0  0  0
    0.0000    0.0000    0.0000 N   0  0  0  0  0  0  0  0  0  0  0  0
    0.0000    0.0000    0.0000 C   0  0  0  0  0  0  0  0  0  0  0  0
    0.0000    0.0000    0.0000 N   0  0  0  0  0  0  0  0  0  0  0  0
    0.0000    0.0000    0.0000 C   0  0  0  0  0  0  0  0  0  0  0  0
    0.0000    0.0000    0.0000 C   0  0  0  0  0  0  0  0  0  0  0  0
    0.0000    0.0000    0.0000 N   0  0  0  0  0  0  0  0  0  0  0  0
    0.0000    0.0000    0.0000 C   0  0  0  0  0  0  0  0  0  0  0  0
    0.0000    0.0000    0.0000 C   0  0  0  0  0  0  0  0  0  0  0  0
    0.0000    0.0000    0.0000 C   0  0  0  0  0  0  0  0  0  0  0  0
    0.0000    0.0000    0.0000 Cl  0  0  0  0  0  0  0  0  0  0  0  0
    0.0000    0.0000    0.0000 C   0  0  0  0  0  0  0  0  0  0  0  0
    0.0000    0.0000    0.0000 C   0  0  0  0  0  0  0  0  0  0  0  0
    0.0000    0.0000    0.0000 C   0  0  0  0  0  0  0  0  0  0  0  0
  1  2  1  0
  2  3  1  0
  3  4  2  0
  4  5  1  0
  5  6  1  0
  6  7  1  0
  7  8  1  0
  8  9  2  0
  9 10  1  0
 10 11  2  0
 11 12  1  0
 11 13  1  0
 13 14  2  0
 14 15  1  0
  6 16  1  0
 16 17  1  0
 17 18  1  0
 18 19  1  0
 19 20  2  0
 20 21  1  0
 21 22  1  0
 21 23  2  0
 23 24  1  0
 24 25  2  0
 25  3  1  0
 18  4  1  0
 14  8  1  0
 25 19  1  0
M  END
>  <pIC50>  (270) 
7.16333333333

>  <ChEMBL_ID>  (270) 
CHEMBL74592

>  <document_journal>  (270) 
J. Med. Chem.

>  <bao_endpoint>  (270) 
BAO_0000190

>  <potential_duplicate>  (270) 
False

>  <uo_units>  (270) 
UO_0000065

>  <canonical_smiles>  (270) 
CSc1c2CN(Cc3cnc(N)nc3N)CCn2c4cc(Cl)ccc14

>  <parent_molecule_chembl_id>  (270) 
CHEMBL74592

>  <assay_type>  (270) 
B

>  <src_id>  (270) 
1

>  <ligand_efficiency>  (270) 
{u'le': u'0.48', u'bei': u'23.2', u'sei': u'7.82', u'lle': u'5.82'}

>  <standard_flag>  (270) 
True

>  <molecule_chembl_id>  (270) 
CHEMBL74592

>  <target_organism>  (270) 
Homo sapiens

>  <standard_units>  (270) 
nM

>  <record_id>  (270) 
134024

>  <document_chembl_id>  (270) 
CHEMBL1145982

>  <bao_format>  (270) 
BAO_0000357

>  <data_validity_description>  (270) 
None

>  <activity_id>  (270) 
1054773

>  <standard_type>  (270) 
IC50

>  <target_chembl_id>  (270) 
CHEMBL202

>  <data_validity_comment>  (270) 
None

>  <published_value>  (270) 
0.002

>  <document_year>  (270) 
2003

>  <target_pref_name>  (270) 
Dihydrofolate reductase

>  <assay_chembl_id>  (270) 
CHEMBL665665

>  <standard_relation>  (270) 
=

>  <assay_description>  (270) 
Antibacterial activity of TMP-susceptible Dihydrofolate reductase against Staphylococcus pneumoniae ATCC 49619

>  <published_relation>  (270) 
=

>  <standard_value>  (270) 
2

>  <qudt_units>  (270) 
http://www.openphacts.org/units/Nanomolar

>  <target_tax_id>  (270) 
9606

>  <bao_label>  (270) 
single protein format

>  <published_units>  (270) 
uM

>  <pchembl_value>  (270) 
8.7

>  <published_type>  (270) 
IC50

>  <activity_comment>  (270) 
None

$$$$

     RDKit          

 25 28  0  0  0  0  0  0  0  0999 V2000
    0.0000    0.0000    0.0000 C   0  0  0  0  0  0  0  0  0  0  0  0
    0.0000    0.0000    0.0000 O   0  0  0  0  0  0  0  0  0  0  0  0
    0.0000    0.0000    0.0000 C   0  0  0  0  0  0  0  0  0  0  0  0
    0.0000    0.0000    0.0000 C   0  0  0  0  0  0  0  0  0  0  0  0
    0.0000    0.0000    0.0000 C   0  0  0  0  0  0  0  0  0  0  0  0
    0.0000    0.0000    0.0000 C   0  0  0  0  0  0  0  0  0  0  0  0
    0.0000    0.0000    0.0000 C   0  0  0  0  0  0  0  0  0  0  0  0
    0.0000    0.0000    0.0000 N   0  0  0  0  0  0  0  0  0  0  0  0
    0.0000    0.0000    0.0000 C   0  0  0  0  0  0  0  0  0  0  0  0
    0.0000    0.0000    0.0000 C   0  0  0  0  0  0  0  0  0  0  0  0
    0.0000    0.0000    0.0000 C   0  0  0  0  0  0  0  0  0  0  0  0
    0.0000    0.0000    0.0000 N   0  0  0  0  0  0  0  0  0  0  0  0
    0.0000    0.0000    0.0000 C   0  0  0  0  0  0  0  0  0  0  0  0
    0.0000    0.0000    0.0000 N   0  0  0  0  0  0  0  0  0  0  0  0
    0.0000    0.0000    0.0000 N   0  0  0  0  0  0  0  0  0  0  0  0
    0.0000    0.0000    0.0000 C   0  0  0  0  0  0  0  0  0  0  0  0
    0.0000    0.0000    0.0000 N   0  0  0  0  0  0  0  0  0  0  0  0
    0.0000    0.0000    0.0000 C   0  0  0  0  0  0  0  0  0  0  0  0
    0.0000    0.0000    0.0000 C   0  0  0  0  0  0  0  0  0  0  0  0
    0.0000    0.0000    0.0000 C   0  0  0  0  0  0  0  0  0  0  0  0
    0.0000    0.0000    0.0000 C   0  0  0  0  0  0  0  0  0  0  0  0
    0.0000    0.0000    0.0000 O   0  0  0  0  0  0  0  0  0  0  0  0
    0.0000    0.0000    0.0000 C   0  0  0  0  0  0  0  0  0  0  0  0
    0.0000    0.0000    0.0000 O   0  0  0  0  0  0  0  0  0  0  0  0
    0.0000    0.0000    0.0000 C   0  0  0  0  0  0  0  0  0  0  0  0
  1  2  1  0
  2  3  1  0
  3  4  2  0
  4  5  1  0
  5  6  1  0
  6  7  1  0
  7  8  1  0
  8  9  1  0
  9 10  1  0
 10 11  2  0
 11 12  1  0
 12 13  2  0
 13 14  1  0
 13 15  1  0
 15 16  2  0
 16 17  1  0
  8 18  1  0
 18 19  1  0
 18 20  1  0
 20 21  1  0
 21 22  1  0
 22 23  1  0
 23 24  1  0
 24 25  1  0
 25  3  1  0
 20  5  2  0
 16 10  1  0
 25 21  2  0
M  END
>  <pIC50>  (271) 
7.16666666667

>  <ChEMBL_ID>  (271) 
CHEMBL420755

>  <document_journal>  (271) 
J. Med. Chem.

>  <bao_endpoint>  (271) 
BAO_0000190

>  <potential_duplicate>  (271) 
False

>  <uo_units>  (271) 
UO_0000065

>  <canonical_smiles>  (271) 
COc1cc2CCN(Cc3cnc(N)nc3N)[C@@H](C)c2c4OCOc14

>  <parent_molecule_chembl_id>  (271) 
CHEMBL420755

>  <assay_type>  (271) 
B

>  <src_id>  (271) 
1

>  <ligand_efficiency>  (271) 
{u'le': u'0.42', u'bei': u'22.36', u'sei': u'7.06', u'lle': u'6.2'}

>  <standard_flag>  (271) 
True

>  <molecule_chembl_id>  (271) 
CHEMBL420755

>  <target_organism>  (271) 
Homo sapiens

>  <standard_units>  (271) 
nM

>  <record_id>  (271) 
134020

>  <document_chembl_id>  (271) 
CHEMBL1145982

>  <bao_format>  (271) 
BAO_0000357

>  <data_validity_description>  (271) 
None

>  <activity_id>  (271) 
1056013

>  <standard_type>  (271) 
IC50

>  <target_chembl_id>  (271) 
CHEMBL202

>  <data_validity_comment>  (271) 
None

>  <published_value>  (271) 
0.021

>  <document_year>  (271) 
2003

>  <target_pref_name>  (271) 
Dihydrofolate reductase

>  <assay_chembl_id>  (271) 
CHEMBL665666

>  <standard_relation>  (271) 
=

>  <assay_description>  (271) 
Antibacterial activity against TMP-susceptible Dihydrofolate reductase from Staphylococcus pneumoniae ATCC 49619

>  <published_relation>  (271) 
=

>  <standard_value>  (271) 
21

>  <qudt_units>  (271) 
http://www.openphacts.org/units/Nanomolar

>  <target_tax_id>  (271) 
9606

>  <bao_label>  (271) 
single protein format

>  <published_units>  (271) 
uM

>  <pchembl_value>  (271) 
7.68

>  <published_type>  (271) 
IC50

>  <activity_comment>  (271) 
None

$$$$

     RDKit          

 23 25  0  0  0  0  0  0  0  0999 V2000
    0.0000    0.0000    0.0000 C   0  0  0  0  0  0  0  0  0  0  0  0
    0.0000    0.0000    0.0000 O   0  0  0  0  0  0  0  0  0  0  0  0
    0.0000    0.0000    0.0000 C   0  0  0  0  0  0  0  0  0  0  0  0
    0.0000    0.0000    0.0000 C   0  0  0  0  0  0  0  0  0  0  0  0
    0.0000    0.0000    0.0000 C   0  0  0  0  0  0  0  0  0  0  0  0
    0.0000    0.0000    0.0000 C   0  0  0  0  0  0  0  0  0  0  0  0
    0.0000    0.0000    0.0000 C   0  0  0  0  0  0  0  0  0  0  0  0
    0.0000    0.0000    0.0000 N   0  0  0  0  0  0  0  0  0  0  0  0
    0.0000    0.0000    0.0000 C   0  0  0  0  0  0  0  0  0  0  0  0
    0.0000    0.0000    0.0000 C   0  0  0  0  0  0  0  0  0  0  0  0
    0.0000    0.0000    0.0000 C   0  0  0  0  0  0  0  0  0  0  0  0
    0.0000    0.0000    0.0000 N   0  0  0  0  0  0  0  0  0  0  0  0
    0.0000    0.0000    0.0000 C   0  0  0  0  0  0  0  0  0  0  0  0
    0.0000    0.0000    0.0000 N   0  0  0  0  0  0  0  0  0  0  0  0
    0.0000    0.0000    0.0000 N   0  0  0  0  0  0  0  0  0  0  0  0
    0.0000    0.0000    0.0000 C   0  0  0  0  0  0  0  0  0  0  0  0
    0.0000    0.0000    0.0000 N   0  0  0  0  0  0  0  0  0  0  0  0
    0.0000    0.0000    0.0000 C   0  0  0  0  0  0  0  0  0  0  0  0
    0.0000    0.0000    0.0000 C   0  0  0  0  0  0  0  0  0  0  0  0
    0.0000    0.0000    0.0000 C   0  0  0  0  0  0  0  0  0  0  0  0
    0.0000    0.0000    0.0000 C   0  0  0  0  0  0  0  0  0  0  0  0
    0.0000    0.0000    0.0000 O   0  0  0  0  0  0  0  0  0  0  0  0
    0.0000    0.0000    0.0000 C   0  0  0  0  0  0  0  0  0  0  0  0
  1  2  1  0
  2  3  1  0
  3  4  2  0
  4  5  1  0
  5  6  1  0
  6  7  1  0
  7  8  1  0
  8  9  1  0
  9 10  1  0
 10 11  2  0
 11 12  1  0
 12 13  2  0
 13 14  1  0
 13 15  1  0
 15 16  2  0
 16 17  1  0
  8 18  1  0
 18 19  1  0
 19 20  1  0
 20 21  2  0
 21 22  1  0
 22 23  1  0
 21  3  1  0
 19  5  2  0
 16 10  1  0
M  END
>  <pIC50>  (272) 
6.47

>  <ChEMBL_ID>  (272) 
CHEMBL77582

>  <document_journal>  (272) 
J. Med. Chem.

>  <bao_endpoint>  (272) 
BAO_0000190

>  <potential_duplicate>  (272) 
False

>  <uo_units>  (272) 
UO_0000065

>  <canonical_smiles>  (272) 
COc1cc2CCN(Cc3cnc(N)nc3N)Cc2cc1OC

>  <parent_molecule_chembl_id>  (272) 
CHEMBL77582

>  <assay_type>  (272) 
B

>  <src_id>  (272) 
1

>  <ligand_efficiency>  (272) 
{u'le': u'0.4', u'bei': u'21.17', u'sei': u'6.71', u'lle': u'5.36'}

>  <standard_flag>  (272) 
True

>  <molecule_chembl_id>  (272) 
CHEMBL77582

>  <target_organism>  (272) 
Homo sapiens

>  <standard_units>  (272) 
nM

>  <record_id>  (272) 
134015

>  <document_chembl_id>  (272) 
CHEMBL1145982

>  <bao_format>  (272) 
BAO_0000357

>  <data_validity_description>  (272) 
None

>  <activity_id>  (272) 
1057357

>  <standard_type>  (272) 
IC50

>  <target_chembl_id>  (272) 
CHEMBL202

>  <data_validity_comment>  (272) 
None

>  <published_value>  (272) 
0.21

>  <document_year>  (272) 
2003

>  <target_pref_name>  (272) 
Dihydrofolate reductase

>  <assay_chembl_id>  (272) 
CHEMBL665668

>  <standard_relation>  (272) 
=

>  <assay_description>  (272) 
Inhibitory activity of TMP-susceptible Dihydrofolate reductase against Staphylococcus pneumoniae ATCC 49619

>  <published_relation>  (272) 
=

>  <standard_value>  (272) 
210

>  <qudt_units>  (272) 
http://www.openphacts.org/units/Nanomolar

>  <target_tax_id>  (272) 
9606

>  <bao_label>  (272) 
single protein format

>  <published_units>  (272) 
uM

>  <pchembl_value>  (272) 
6.68

>  <published_type>  (272) 
IC50

>  <activity_comment>  (272) 
None

$$$$

     RDKit          

 19 21  0  0  0  0  0  0  0  0999 V2000
    0.0000    0.0000    0.0000 N   0  0  0  0  0  0  0  0  0  0  0  0
    0.0000    0.0000    0.0000 C   0  0  0  0  0  0  0  0  0  0  0  0
    0.0000    0.0000    0.0000 N   0  0  0  0  0  0  0  0  0  0  0  0
    0.0000    0.0000    0.0000 C   0  0  0  0  0  0  0  0  0  0  0  0
    0.0000    0.0000    0.0000 C   0  0  0  0  0  0  0  0  0  0  0  0
    0.0000    0.0000    0.0000 C   0  0  0  0  0  0  0  0  0  0  0  0
    0.0000    0.0000    0.0000 N   0  0  0  0  0  0  0  0  0  0  0  0
    0.0000    0.0000    0.0000 C   0  0  0  0  0  0  0  0  0  0  0  0
    0.0000    0.0000    0.0000 C   0  0  0  0  0  0  0  0  0  0  0  0
    0.0000    0.0000    0.0000 C   0  0  0  0  0  0  0  0  0  0  0  0
    0.0000    0.0000    0.0000 C   0  0  0  0  0  0  0  0  0  0  0  0
    0.0000    0.0000    0.0000 C   0  0  0  0  0  0  0  0  0  0  0  0
    0.0000    0.0000    0.0000 C   0  0  0  0  0  0  0  0  0  0  0  0
    0.0000    0.0000    0.0000 C   0  0  0  0  0  0  0  0  0  0  0  0
    0.0000    0.0000    0.0000 C   0  0  0  0  0  0  0  0  0  0  0  0
    0.0000    0.0000    0.0000 C   0  0  0  0  0  0  0  0  0  0  0  0
    0.0000    0.0000    0.0000 C   0  0  0  0  0  0  0  0  0  0  0  0
    0.0000    0.0000    0.0000 N   0  0  0  0  0  0  0  0  0  0  0  0
    0.0000    0.0000    0.0000 N   0  0  0  0  0  0  0  0  0  0  0  0
  1  2  1  0
  2  3  2  0
  3  4  1  0
  4  5  2  0
  5  6  1  0
  6  7  1  0
  7  8  1  0
  8  9  1  0
  9 10  1  0
 10 11  2  0
 11 12  1  0
 12 13  2  0
 13 14  1  0
 14 15  2  0
 15 16  1  0
  5 17  1  0
 17 18  1  0
 17 19  2  0
 19  2  1  0
 16  7  1  0
 15 10  1  0
M  END
>  <pIC50>  (273) 
5.61

>  <ChEMBL_ID>  (273) 
CHEMBL74782

>  <document_journal>  (273) 
J. Med. Chem.

>  <bao_endpoint>  (273) 
BAO_0000190

>  <potential_duplicate>  (273) 
False

>  <uo_units>  (273) 
UO_0000065

>  <canonical_smiles>  (273) 
Nc1ncc(CN2CCc3ccccc3C2)c(N)n1

>  <parent_molecule_chembl_id>  (273) 
CHEMBL74782

>  <assay_type>  (273) 
B

>  <src_id>  (273) 
1

>  <ligand_efficiency>  (273) 
{u'le': u'0.43', u'bei': u'23.34', u'sei': u'7.35', u'lle': u'4.61'}

>  <standard_flag>  (273) 
True

>  <molecule_chembl_id>  (273) 
CHEMBL74782

>  <target_organism>  (273) 
Homo sapiens

>  <standard_units>  (273) 
nM

>  <record_id>  (273) 
134019

>  <document_chembl_id>  (273) 
CHEMBL1145982

>  <bao_format>  (273) 
BAO_0000357

>  <data_validity_description>  (273) 
None

>  <activity_id>  (273) 
1060916

>  <standard_type>  (273) 
IC50

>  <target_chembl_id>  (273) 
CHEMBL202

>  <data_validity_comment>  (273) 
None

>  <published_value>  (273) 
1.1

>  <document_year>  (273) 
2003

>  <target_pref_name>  (273) 
Dihydrofolate reductase

>  <assay_chembl_id>  (273) 
CHEMBL665666

>  <standard_relation>  (273) 
=

>  <assay_description>  (273) 
Antibacterial activity against TMP-susceptible Dihydrofolate reductase from Staphylococcus pneumoniae ATCC 49619

>  <published_relation>  (273) 
=

>  <standard_value>  (273) 
1100

>  <qudt_units>  (273) 
http://www.openphacts.org/units/Nanomolar

>  <target_tax_id>  (273) 
9606

>  <bao_label>  (273) 
single protein format

>  <published_units>  (273) 
uM

>  <pchembl_value>  (273) 
5.96

>  <published_type>  (273) 
IC50

>  <activity_comment>  (273) 
None

$$$$

     RDKit          

 24 26  0  0  0  0  0  0  0  0999 V2000
    0.0000    0.0000    0.0000 C   0  0  0  0  0  0  0  0  0  0  0  0
    0.0000    0.0000    0.0000 O   0  0  0  0  0  0  0  0  0  0  0  0
    0.0000    0.0000    0.0000 C   0  0  0  0  0  0  0  0  0  0  0  0
    0.0000    0.0000    0.0000 C   0  0  0  0  0  0  0  0  0  0  0  0
    0.0000    0.0000    0.0000 C   0  0  0  0  0  0  0  0  0  0  0  0
    0.0000    0.0000    0.0000 C   0  0  0  0  0  0  0  0  0  0  0  0
    0.0000    0.0000    0.0000 C   0  0  0  0  0  0  0  0  0  0  0  0
    0.0000    0.0000    0.0000 N   0  0  0  0  0  0  0  0  0  0  0  0
    0.0000    0.0000    0.0000 C   0  0  0  0  0  0  0  0  0  0  0  0
    0.0000    0.0000    0.0000 C   0  0  0  0  0  0  0  0  0  0  0  0
    0.0000    0.0000    0.0000 C   0  0  0  0  0  0  0  0  0  0  0  0
    0.0000    0.0000    0.0000 N   0  0  0  0  0  0  0  0  0  0  0  0
    0.0000    0.0000    0.0000 C   0  0  0  0  0  0  0  0  0  0  0  0
    0.0000    0.0000    0.0000 N   0  0  0  0  0  0  0  0  0  0  0  0
    0.0000    0.0000    0.0000 N   0  0  0  0  0  0  0  0  0  0  0  0
    0.0000    0.0000    0.0000 C   0  0  0  0  0  0  0  0  0  0  0  0
    0.0000    0.0000    0.0000 N   0  0  0  0  0  0  0  0  0  0  0  0
    0.0000    0.0000    0.0000 C   0  0  0  0  0  0  0  0  0  0  0  0
    0.0000    0.0000    0.0000 C   0  0  0  0  0  0  0  0  0  0  0  0
    0.0000    0.0000    0.0000 C   0  0  0  0  0  0  0  0  0  0  0  0
    0.0000    0.0000    0.0000 C   0  0  0  0  0  0  0  0  0  0  0  0
    0.0000    0.0000    0.0000 C   0  0  0  0  0  0  0  0  0  0  0  0
    0.0000    0.0000    0.0000 O   0  0  0  0  0  0  0  0  0  0  0  0
    0.0000    0.0000    0.0000 C   0  0  0  0  0  0  0  0  0  0  0  0
  1  2  1  0
  2  3  1  0
  3  4  2  0
  4  5  1  0
  5  6  1  0
  6  7  1  0
  7  8  1  0
  8  9  1  0
  9 10  1  0
 10 11  2  0
 11 12  1  0
 12 13  2  0
 13 14  1  0
 13 15  1  0
 15 16  2  0
 16 17  1  0
  8 18  1  0
 18 19  1  0
 18 20  1  0
 20 21  1  0
 21 22  2  0
 22 23  1  0
 23 24  1  0
 22  3  1  0
 20  5  2  0
 16 10  1  0
M  END
>  <pIC50>  (274) 
6.93666666667

>  <ChEMBL_ID>  (274) 
CHEMBL74781

>  <document_journal>  (274) 
J. Med. Chem.

>  <bao_endpoint>  (274) 
BAO_0000190

>  <potential_duplicate>  (274) 
False

>  <uo_units>  (274) 
UO_0000065

>  <canonical_smiles>  (274) 
COc1cc2CCN(Cc3cnc(N)nc3N)C(C)c2cc1OC

>  <parent_molecule_chembl_id>  (274) 
CHEMBL74781

>  <assay_type>  (274) 
B

>  <src_id>  (274) 
1

>  <ligand_efficiency>  (274) 
{u'le': u'0.42', u'bei': u'22.33', u'sei': u'7.39', u'lle': u'5.67'}

>  <standard_flag>  (274) 
True

>  <molecule_chembl_id>  (274) 
CHEMBL74781

>  <target_organism>  (274) 
Homo sapiens

>  <standard_units>  (274) 
nM

>  <record_id>  (274) 
134018

>  <document_chembl_id>  (274) 
CHEMBL1145982

>  <bao_format>  (274) 
BAO_0000357

>  <data_validity_description>  (274) 
None

>  <activity_id>  (274) 
1063686

>  <standard_type>  (274) 
IC50

>  <target_chembl_id>  (274) 
CHEMBL202

>  <data_validity_comment>  (274) 
None

>  <published_value>  (274) 
0.044

>  <document_year>  (274) 
2003

>  <target_pref_name>  (274) 
Dihydrofolate reductase

>  <assay_chembl_id>  (274) 
CHEMBL665666

>  <standard_relation>  (274) 
=

>  <assay_description>  (274) 
Antibacterial activity against TMP-susceptible Dihydrofolate reductase from Staphylococcus pneumoniae ATCC 49619

>  <published_relation>  (274) 
=

>  <standard_value>  (274) 
44

>  <qudt_units>  (274) 
http://www.openphacts.org/units/Nanomolar

>  <target_tax_id>  (274) 
9606

>  <bao_label>  (274) 
single protein format

>  <published_units>  (274) 
uM

>  <pchembl_value>  (274) 
7.36

>  <published_type>  (274) 
IC50

>  <activity_comment>  (274) 
None

$$$$

     RDKit          

 41 44  0  0  0  0  0  0  0  0999 V2000
    0.0000    0.0000    0.0000 N   0  0  0  0  0  0  0  0  0  0  0  0
    0.0000    0.0000    0.0000 C   0  0  0  0  0  0  0  0  0  0  0  0
    0.0000    0.0000    0.0000 N   0  0  0  0  0  0  0  0  0  0  0  0
    0.0000    0.0000    0.0000 C   0  0  0  0  0  0  0  0  0  0  0  0
    0.0000    0.0000    0.0000 N   0  0  0  0  0  0  0  0  0  0  0  0
    0.0000    0.0000    0.0000 C   0  0  0  0  0  0  0  0  0  0  0  0
    0.0000    0.0000    0.0000 N   0  0  0  0  0  0  0  0  0  0  0  0
    0.0000    0.0000    0.0000 C   0  0  0  0  0  0  0  0  0  0  0  0
    0.0000    0.0000    0.0000 C   0  0  0  0  0  0  0  0  0  0  0  0
    0.0000    0.0000    0.0000 N   0  0  0  0  0  0  0  0  0  0  0  0
    0.0000    0.0000    0.0000 C   0  0  0  0  0  0  0  0  0  0  0  0
    0.0000    0.0000    0.0000 C   0  0  0  0  0  0  0  0  0  0  0  0
    0.0000    0.0000    0.0000 C   0  0  0  0  0  0  0  0  0  0  0  0
    0.0000    0.0000    0.0000 C   0  0  0  0  0  0  0  0  0  0  0  0
    0.0000    0.0000    0.0000 C   0  0  0  0  0  0  0  0  0  0  0  0
    0.0000    0.0000    0.0000 C   0  0  0  0  0  0  0  0  0  0  0  0
    0.0000    0.0000    0.0000 C   0  0  0  0  0  0  0  0  0  0  0  0
    0.0000    0.0000    0.0000 O   0  0  0  0  0  0  0  0  0  0  0  0
    0.0000    0.0000    0.0000 N   0  0  0  0  0  0  0  0  0  0  0  0
    0.0000    0.0000    0.0000 C   0  0  0  0  0  0  0  0  0  0  0  0
    0.0000    0.0000    0.0000 C   0  0  0  0  0  0  0  0  0  0  0  0
    0.0000    0.0000    0.0000 C   0  0  0  0  0  0  0  0  0  0  0  0
    0.0000    0.0000    0.0000 N   0  0  0  0  0  0  0  0  0  0  0  0
    0.0000    0.0000    0.0000 C   0  0  0  0  0  0  0  0  0  0  0  0
    0.0000    0.0000    0.0000 O   0  0  0  0  0  0  0  0  0  0  0  0
    0.0000    0.0000    0.0000 C   0  0  0  0  0  0  0  0  0  0  0  0
    0.0000    0.0000    0.0000 C   0  0  0  0  0  0  0  0  0  0  0  0
    0.0000    0.0000    0.0000 C   0  0  0  0  0  0  0  0  0  0  0  0
    0.0000    0.0000    0.0000 C   0  0  0  0  0  0  0  0  0  0  0  0
    0.0000    0.0000    0.0000 C   0  0  0  0  0  0  0  0  0  0  0  0
    0.0000    0.0000    0.0000 C   0  0  0  0  0  0  0  0  0  0  0  0
    0.0000    0.0000    0.0000 C   0  0  0  0  0  0  0  0  0  0  0  0
    0.0000    0.0000    0.0000 O   0  0  0  0  0  0  0  0  0  0  0  0
    0.0000    0.0000    0.0000 O   0  0  0  0  0  0  0  0  0  0  0  0
    0.0000    0.0000    0.0000 C   0  0  0  0  0  0  0  0  0  0  0  0
    0.0000    0.0000    0.0000 O   0  0  0  0  0  0  0  0  0  0  0  0
    0.0000    0.0000    0.0000 O   0  0  0  0  0  0  0  0  0  0  0  0
    0.0000    0.0000    0.0000 C   0  0  0  0  0  0  0  0  0  0  0  0
    0.0000    0.0000    0.0000 N   0  0  0  0  0  0  0  0  0  0  0  0
    0.0000    0.0000    0.0000 C   0  0  0  0  0  0  0  0  0  0  0  0
    0.0000    0.0000    0.0000 N   0  0  0  0  0  0  0  0  0  0  0  0
  1  2  1  0
  2  3  2  0
  3  4  1  0
  4  5  1  0
  4  6  2  0
  6  7  1  0
  7  8  2  0
  8  9  1  0
  9 10  1  0
 10 11  1  0
 11 12  2  0
 12 13  1  0
 13 14  2  0
 14 15  1  0
 15 16  2  0
 14 17  1  0
 17 18  2  0
 17 19  1  0
 19 20  1  0
 20 21  1  0
 21 22  1  0
 22 23  1  0
 23 24  1  0
 24 25  2  0
 24 26  1  0
 26 27  2  0
 27 28  1  0
 28 29  2  0
 29 30  1  0
 30 31  2  0
 31 32  1  0
 32 33  2  0
 32 34  1  0
 20 35  1  0
 35 36  2  0
 35 37  1  0
  8 38  1  0
 38 39  2  0
 39 40  1  0
 40 41  2  0
 41  2  1  0
 40  6  1  0
 16 11  1  0
 31 26  1  0
M  END
>  <pIC50>  (275) 
7.94

>  <ChEMBL_ID>  (275) 
CHEMBL42819

>  <document_journal>  (275) 
J. Med. Chem.

>  <bao_endpoint>  (275) 
BAO_0000190

>  <potential_duplicate>  (275) 
False

>  <uo_units>  (275) 
UO_0000065

>  <canonical_smiles>  (275) 
Nc1nc(N)c2nc(CNc3ccc(cc3)C(=O)NC(CCNC(=O)c4ccccc4C(=O)O)C(=O)O)cnc2n1

>  <parent_molecule_chembl_id>  (275) 
CHEMBL42819

>  <assay_type>  (275) 
B

>  <src_id>  (275) 
1

>  <ligand_efficiency>  (275) 
{u'le': u'0.26', u'bei': u'14.18', u'sei': u'3.19', u'lle': u'7.68'}

>  <standard_flag>  (275) 
True

>  <molecule_chembl_id>  (275) 
CHEMBL42819

>  <target_organism>  (275) 
Homo sapiens

>  <standard_units>  (275) 
nM

>  <record_id>  (275) 
120991

>  <document_chembl_id>  (275) 
CHEMBL1127804

>  <bao_format>  (275) 
BAO_0000357

>  <data_validity_description>  (275) 
None

>  <activity_id>  (275) 
1104847

>  <standard_type>  (275) 
IC50

>  <target_chembl_id>  (275) 
CHEMBL202

>  <data_validity_comment>  (275) 
None

>  <published_value>  (275) 
11.6

>  <document_year>  (275) 
1994

>  <target_pref_name>  (275) 
Dihydrofolate reductase

>  <assay_chembl_id>  (275) 
CHEMBL668671

>  <standard_relation>  (275) 
=

>  <assay_description>  (275) 
Tested for inhibitory concentration against human dihydrofolate reductase(DHFR)

>  <published_relation>  (275) 
=

>  <standard_value>  (275) 
11.6

>  <qudt_units>  (275) 
http://www.openphacts.org/units/Nanomolar

>  <target_tax_id>  (275) 
9606

>  <bao_label>  (275) 
single protein format

>  <published_units>  (275) 
nM

>  <pchembl_value>  (275) 
7.94

>  <published_type>  (275) 
IC50

>  <activity_comment>  (275) 
None

$$$$

     RDKit          

 20 22  0  0  0  0  0  0  0  0999 V2000
    0.0000    0.0000    0.0000 C   0  0  0  0  0  0  0  0  0  0  0  0
    0.0000    0.0000    0.0000 C   0  0  0  0  0  0  0  0  0  0  0  0
    0.0000    0.0000    0.0000 C   0  0  0  0  0  0  0  0  0  0  0  0
    0.0000    0.0000    0.0000 C   0  0  0  0  0  0  0  0  0  0  0  0
    0.0000    0.0000    0.0000 C   0  0  0  0  0  0  0  0  0  0  0  0
    0.0000    0.0000    0.0000 N   0  0  0  0  0  0  0  0  0  0  0  0
    0.0000    0.0000    0.0000 C   0  0  0  0  0  0  0  0  0  0  0  0
    0.0000    0.0000    0.0000 C   0  0  0  0  0  0  0  0  0  0  0  0
    0.0000    0.0000    0.0000 C   0  0  0  0  0  0  0  0  0  0  0  0
    0.0000    0.0000    0.0000 C   0  0  0  0  0  0  0  0  0  0  0  0
    0.0000    0.0000    0.0000 C   0  0  0  0  0  0  0  0  0  0  0  0
    0.0000    0.0000    0.0000 C   0  0  0  0  0  0  0  0  0  0  0  0
    0.0000    0.0000    0.0000 C   0  0  0  0  0  0  0  0  0  0  0  0
    0.0000    0.0000    0.0000 N   0  0  0  0  0  0  0  0  0  0  0  0
    0.0000    0.0000    0.0000 C   0  0  0  0  0  0  0  0  0  0  0  0
    0.0000    0.0000    0.0000 N   0  0  0  0  0  0  0  0  0  0  0  0
    0.0000    0.0000    0.0000 N   0  0  0  0  0  0  0  0  0  0  0  0
    0.0000    0.0000    0.0000 C   0  0  0  0  0  0  0  0  0  0  0  0
    0.0000    0.0000    0.0000 N   0  0  0  0  0  0  0  0  0  0  0  0
    0.0000    0.0000    0.0000 C   0  0  0  0  0  0  0  0  0  0  0  0
  1  2  1  0
  2  3  1  0
  3  4  1  0
  4  5  1  0
  3  6  1  0
  6  7  1  0
  7  8  2  0
  8  9  1  0
  9 10  2  0
 10 11  1  0
 11 12  2  0
 12 13  1  0
 13 14  2  0
 14 15  1  0
 15 16  1  0
 15 17  2  0
 17 18  1  0
 18 19  1  0
 18 20  2  0
 10  6  1  0
 20  9  1  0
 20 13  1  0
M  END
>  <pIC50>  (276) 
8.18

>  <ChEMBL_ID>  (276) 
CHEMBL318721

>  <document_journal>  (276) 
J. Med. Chem.

>  <bao_endpoint>  (276) 
BAO_0000190

>  <potential_duplicate>  (276) 
False

>  <uo_units>  (276) 
UO_0000065

>  <canonical_smiles>  (276) 
CCC(CC)n1ccc2c1ccc3nc(N)nc(N)c23

>  <parent_molecule_chembl_id>  (276) 
CHEMBL318721

>  <assay_type>  (276) 
B

>  <src_id>  (276) 
1

>  <ligand_efficiency>  (276) 
{u'le': u'0.56', u'bei': u'30.37', u'sei': u'9.89', u'lle': u'4.95'}

>  <standard_flag>  (276) 
True

>  <molecule_chembl_id>  (276) 
CHEMBL318721

>  <target_organism>  (276) 
Homo sapiens

>  <standard_units>  (276) 
nM

>  <record_id>  (276) 
184735

>  <document_chembl_id>  (276) 
CHEMBL1134578

>  <bao_format>  (276) 
BAO_0000357

>  <data_validity_description>  (276) 
None

>  <activity_id>  (276) 
1104909

>  <standard_type>  (276) 
IC50

>  <target_chembl_id>  (276) 
CHEMBL202

>  <data_validity_comment>  (276) 
None

>  <published_value>  (276) 
0.0066

>  <document_year>  (276) 
2001

>  <target_pref_name>  (276) 
Dihydrofolate reductase

>  <assay_chembl_id>  (276) 
CHEMBL880698

>  <standard_relation>  (276) 
=

>  <assay_description>  (276) 
Inhibitory activity against recombinant human dihydrofolate reductase

>  <published_relation>  (276) 
=

>  <standard_value>  (276) 
6.6

>  <qudt_units>  (276) 
http://www.openphacts.org/units/Nanomolar

>  <target_tax_id>  (276) 
9606

>  <bao_label>  (276) 
single protein format

>  <published_units>  (276) 
uM

>  <pchembl_value>  (276) 
8.18

>  <published_type>  (276) 
IC50

>  <activity_comment>  (276) 
None

$$$$

     RDKit          

 43 46  0  0  0  0  0  0  0  0999 V2000
    0.0000    0.0000    0.0000 N   0  0  0  0  0  0  0  0  0  0  0  0
    0.0000    0.0000    0.0000 C   0  0  0  0  0  0  0  0  0  0  0  0
    0.0000    0.0000    0.0000 N   0  0  0  0  0  0  0  0  0  0  0  0
    0.0000    0.0000    0.0000 C   0  0  0  0  0  0  0  0  0  0  0  0
    0.0000    0.0000    0.0000 N   0  0  0  0  0  0  0  0  0  0  0  0
    0.0000    0.0000    0.0000 C   0  0  0  0  0  0  0  0  0  0  0  0
    0.0000    0.0000    0.0000 N   0  0  0  0  0  0  0  0  0  0  0  0
    0.0000    0.0000    0.0000 C   0  0  0  0  0  0  0  0  0  0  0  0
    0.0000    0.0000    0.0000 C   0  0  0  0  0  0  0  0  0  0  0  0
    0.0000    0.0000    0.0000 N   0  0  0  0  0  0  0  0  0  0  0  0
    0.0000    0.0000    0.0000 C   0  0  0  0  0  0  0  0  0  0  0  0
    0.0000    0.0000    0.0000 C   0  0  0  0  0  0  0  0  0  0  0  0
    0.0000    0.0000    0.0000 C   0  0  0  0  0  0  0  0  0  0  0  0
    0.0000    0.0000    0.0000 C   0  0  0  0  0  0  0  0  0  0  0  0
    0.0000    0.0000    0.0000 C   0  0  0  0  0  0  0  0  0  0  0  0
    0.0000    0.0000    0.0000 C   0  0  0  0  0  0  0  0  0  0  0  0
    0.0000    0.0000    0.0000 C   0  0  0  0  0  0  0  0  0  0  0  0
    0.0000    0.0000    0.0000 O   0  0  0  0  0  0  0  0  0  0  0  0
    0.0000    0.0000    0.0000 N   0  0  0  0  0  0  0  0  0  0  0  0
    0.0000    0.0000    0.0000 C   0  0  0  0  0  0  0  0  0  0  0  0
    0.0000    0.0000    0.0000 C   0  0  0  0  0  0  0  0  0  0  0  0
    0.0000    0.0000    0.0000 C   0  0  0  0  0  0  0  0  0  0  0  0
    0.0000    0.0000    0.0000 C   0  0  0  0  0  0  0  0  0  0  0  0
    0.0000    0.0000    0.0000 C   0  0  0  0  0  0  0  0  0  0  0  0
    0.0000    0.0000    0.0000 N   0  0  0  0  0  0  0  0  0  0  0  0
    0.0000    0.0000    0.0000 C   0  0  0  0  0  0  0  0  0  0  0  0
    0.0000    0.0000    0.0000 O   0  0  0  0  0  0  0  0  0  0  0  0
    0.0000    0.0000    0.0000 C   0  0  0  0  0  0  0  0  0  0  0  0
    0.0000    0.0000    0.0000 C   0  0  0  0  0  0  0  0  0  0  0  0
    0.0000    0.0000    0.0000 C   0  0  0  0  0  0  0  0  0  0  0  0
    0.0000    0.0000    0.0000 C   0  0  0  0  0  0  0  0  0  0  0  0
    0.0000    0.0000    0.0000 C   0  0  0  0  0  0  0  0  0  0  0  0
    0.0000    0.0000    0.0000 C   0  0  0  0  0  0  0  0  0  0  0  0
    0.0000    0.0000    0.0000 C   0  0  0  0  0  0  0  0  0  0  0  0
    0.0000    0.0000    0.0000 O   0  0  0  0  0  0  0  0  0  0  0  0
    0.0000    0.0000    0.0000 O   0  0  0  0  0  0  0  0  0  0  0  0
    0.0000    0.0000    0.0000 C   0  0  0  0  0  0  0  0  0  0  0  0
    0.0000    0.0000    0.0000 O   0  0  0  0  0  0  0  0  0  0  0  0
    0.0000    0.0000    0.0000 O   0  0  0  0  0  0  0  0  0  0  0  0
    0.0000    0.0000    0.0000 C   0  0  0  0  0  0  0  0  0  0  0  0
    0.0000    0.0000    0.0000 N   0  0  0  0  0  0  0  0  0  0  0  0
    0.0000    0.0000    0.0000 C   0  0  0  0  0  0  0  0  0  0  0  0
    0.0000    0.0000    0.0000 N   0  0  0  0  0  0  0  0  0  0  0  0
  1  2  1  0
  2  3  2  0
  3  4  1  0
  4  5  1  0
  4  6  2  0
  6  7  1  0
  7  8  2  0
  8  9  1  0
  9 10  1  0
 10 11  1  0
 11 12  2  0
 12 13  1  0
 13 14  2  0
 14 15  1  0
 15 16  2  0
 14 17  1  0
 17 18  2  0
 17 19  1  0
 19 20  1  0
 20 21  1  0
 21 22  1  0
 22 23  1  0
 23 24  1  0
 24 25  1  0
 25 26  1  0
 26 27  2  0
 26 28  1  0
 28 29  2  0
 29 30  1  0
 30 31  2  0
 31 32  1  0
 32 33  2  0
 33 34  1  0
 34 35  2  0
 34 36  1  0
 20 37  1  0
 37 38  2  0
 37 39  1  0
  8 40  1  0
 40 41  2  0
 41 42  1  0
 42 43  2  0
 43  2  1  0
 42  6  1  0
 16 11  1  0
 33 28  1  0
M  END
>  <pIC50>  (277) 
7.94

>  <ChEMBL_ID>  (277) 
CHEMBL44919

>  <document_journal>  (277) 
J. Med. Chem.

>  <bao_endpoint>  (277) 
BAO_0000190

>  <potential_duplicate>  (277) 
False

>  <uo_units>  (277) 
UO_0000065

>  <canonical_smiles>  (277) 
Nc1nc(N)c2nc(CNc3ccc(cc3)C(=O)NC(CCCCNC(=O)c4ccccc4C(=O)O)C(=O)O)cnc2n1

>  <parent_molecule_chembl_id>  (277) 
CHEMBL44919

>  <assay_type>  (277) 
B

>  <src_id>  (277) 
1

>  <ligand_efficiency>  (277) 
{u'le': u'0.25', u'bei': u'13.52', u'sei': u'3.2', u'lle': u'6.64'}

>  <standard_flag>  (277) 
True

>  <molecule_chembl_id>  (277) 
CHEMBL44919

>  <target_organism>  (277) 
Homo sapiens

>  <standard_units>  (277) 
nM

>  <record_id>  (277) 
120992

>  <document_chembl_id>  (277) 
CHEMBL1127804

>  <bao_format>  (277) 
BAO_0000357

>  <data_validity_description>  (277) 
None

>  <activity_id>  (277) 
1108350

>  <standard_type>  (277) 
IC50

>  <target_chembl_id>  (277) 
CHEMBL202

>  <data_validity_comment>  (277) 
None

>  <published_value>  (277) 
11.4

>  <document_year>  (277) 
1994

>  <target_pref_name>  (277) 
Dihydrofolate reductase

>  <assay_chembl_id>  (277) 
CHEMBL669255

>  <standard_relation>  (277) 
=

>  <assay_description>  (277) 
rested for inhibitory concentration against human dihydrofolate reductase(DHFR)

>  <published_relation>  (277) 
=

>  <standard_value>  (277) 
11.4

>  <qudt_units>  (277) 
http://www.openphacts.org/units/Nanomolar

>  <target_tax_id>  (277) 
9606

>  <bao_label>  (277) 
single protein format

>  <published_units>  (277) 
nM

>  <pchembl_value>  (277) 
7.94

>  <published_type>  (277) 
IC50

>  <activity_comment>  (277) 
None

$$$$

     RDKit          

 26 29  0  0  0  0  0  0  0  0999 V2000
    0.0000    0.0000    0.0000 C   0  0  0  0  0  0  0  0  0  0  0  0
    0.0000    0.0000    0.0000 O   0  0  0  0  0  0  0  0  0  0  0  0
    0.0000    0.0000    0.0000 C   0  0  0  0  0  0  0  0  0  0  0  0
    0.0000    0.0000    0.0000 C   0  0  0  0  0  0  0  0  0  0  0  0
    0.0000    0.0000    0.0000 C   0  0  0  0  0  0  0  0  0  0  0  0
    0.0000    0.0000    0.0000 C   0  0  0  0  0  0  0  0  0  0  0  0
    0.0000    0.0000    0.0000 C   0  0  0  0  0  0  0  0  0  0  0  0
    0.0000    0.0000    0.0000 C   0  0  0  0  0  0  0  0  0  0  0  0
    0.0000    0.0000    0.0000 N   0  0  0  0  0  0  0  0  0  0  0  0
    0.0000    0.0000    0.0000 C   0  0  0  0  0  0  0  0  0  0  0  0
    0.0000    0.0000    0.0000 N   0  0  0  0  0  0  0  0  0  0  0  0
    0.0000    0.0000    0.0000 N   0  0  0  0  0  0  0  0  0  0  0  0
    0.0000    0.0000    0.0000 C   0  0  0  0  0  0  0  0  0  0  0  0
    0.0000    0.0000    0.0000 N   0  0  0  0  0  0  0  0  0  0  0  0
    0.0000    0.0000    0.0000 C   0  0  0  0  0  0  0  0  0  0  0  0
    0.0000    0.0000    0.0000 C   0  0  0  0  0  0  0  0  0  0  0  0
    0.0000    0.0000    0.0000 C   0  0  0  0  0  0  0  0  0  0  0  0
    0.0000    0.0000    0.0000 C   0  0  0  0  0  0  0  0  0  0  0  0
    0.0000    0.0000    0.0000 O   0  0  0  0  0  0  0  0  0  0  0  0
    0.0000    0.0000    0.0000 C   0  0  0  0  0  0  0  0  0  0  0  0
    0.0000    0.0000    0.0000 C   0  0  0  0  0  0  0  0  0  0  0  0
    0.0000    0.0000    0.0000 O   0  0  0  0  0  0  0  0  0  0  0  0
    0.0000    0.0000    0.0000 C   0  0  0  0  0  0  0  0  0  0  0  0
    0.0000    0.0000    0.0000 C   0  0  0  0  0  0  0  0  0  0  0  0
    0.0000    0.0000    0.0000 C   0  0  0  0  0  0  0  0  0  0  0  0
    0.0000    0.0000    0.0000 C   0  0  0  0  0  0  0  0  0  0  0  0
  1  2  1  0
  2  3  1  0
  3  4  2  0
  4  5  1  0
  5  6  1  0
  6  7  1  0
  7  8  2  0
  8  9  1  0
  9 10  2  0
 10 11  1  0
 10 12  1  0
 12 13  2  0
 13 14  1  0
  5 15  2  0
 15 16  1  0
 16 17  2  0
 17 18  1  0
 18 19  1  0
 19 20  1  0
 20 21  2  0
 21 22  1  0
 22 23  1  0
 18 24  1  0
 24 25  1  0
 25 26  1  0
 21  3  1  0
 13  7  1  0
 20 15  1  0
 26 24  1  0
M  END
>  <pIC50>  (278) 
8.1

>  <ChEMBL_ID>  (278) 
CHEMBL134561

>  <document_journal>  (278) 
Bioorg. Med. Chem. Lett.

>  <bao_endpoint>  (278) 
BAO_0000190

>  <potential_duplicate>  (278) 
False

>  <uo_units>  (278) 
UO_0000065

>  <canonical_smiles>  (278) 
COc1cc(Cc2cnc(N)nc2N)c3C=CC(Oc3c1OC)C4CC4

>  <parent_molecule_chembl_id>  (278) 
CHEMBL134561

>  <assay_type>  (278) 
B

>  <src_id>  (278) 
1

>  <ligand_efficiency>  (278) 
{u'le': u'0.43', u'bei': u'22.85', u'sei': u'7.67', u'lle': u'5.49'}

>  <standard_flag>  (278) 
True

>  <molecule_chembl_id>  (278) 
CHEMBL134561

>  <target_organism>  (278) 
Homo sapiens

>  <standard_units>  (278) 
nM

>  <record_id>  (278) 
257806

>  <document_chembl_id>  (278) 
CHEMBL1136461

>  <bao_format>  (278) 
BAO_0000357

>  <data_validity_description>  (278) 
None

>  <activity_id>  (278) 
1116520

>  <standard_type>  (278) 
IC50

>  <target_chembl_id>  (278) 
CHEMBL202

>  <data_validity_comment>  (278) 
None

>  <published_value>  (278) 
0.008

>  <document_year>  (278) 
2003

>  <target_pref_name>  (278) 
Dihydrofolate reductase

>  <assay_chembl_id>  (278) 
CHEMBL875393

>  <standard_relation>  (278) 
=

>  <assay_description>  (278) 
Inhibition of Streptococcus pneumoniae dihydrofolate reductase (DHFR) enzyme by trimethoprim (TMP)

>  <published_relation>  (278) 
=

>  <standard_value>  (278) 
8

>  <qudt_units>  (278) 
http://www.openphacts.org/units/Nanomolar

>  <target_tax_id>  (278) 
9606

>  <bao_label>  (278) 
single protein format

>  <published_units>  (278) 
uM

>  <pchembl_value>  (278) 
8.1

>  <published_type>  (278) 
IC50

>  <activity_comment>  (278) 
None

$$$$

     RDKit          

 21 23  0  0  0  0  0  0  0  0999 V2000
    0.0000    0.0000    0.0000 C   0  0  0  0  0  0  0  0  0  0  0  0
    0.0000    0.0000    0.0000 N   0  0  0  0  0  0  0  0  0  0  0  0
    0.0000    0.0000    0.0000 C   0  0  0  0  0  0  0  0  0  0  0  0
    0.0000    0.0000    0.0000 C   0  0  0  0  0  0  0  0  0  0  0  0
    0.0000    0.0000    0.0000 C   0  0  0  0  0  0  0  0  0  0  0  0
    0.0000    0.0000    0.0000 C   0  0  0  0  0  0  0  0  0  0  0  0
    0.0000    0.0000    0.0000 C   0  0  0  0  0  0  0  0  0  0  0  0
    0.0000    0.0000    0.0000 C   0  0  0  0  0  0  0  0  0  0  0  0
    0.0000    0.0000    0.0000 C   0  0  0  0  0  0  0  0  0  0  0  0
    0.0000    0.0000    0.0000 C   0  0  0  0  0  0  0  0  0  0  0  0
    0.0000    0.0000    0.0000 C   0  0  0  0  0  0  0  0  0  0  0  0
    0.0000    0.0000    0.0000 N   0  0  0  0  0  0  0  0  0  0  0  0
    0.0000    0.0000    0.0000 C   0  0  0  0  0  0  0  0  0  0  0  0
    0.0000    0.0000    0.0000 N   0  0  0  0  0  0  0  0  0  0  0  0
    0.0000    0.0000    0.0000 C   0  0  0  0  0  0  0  0  0  0  0  0
    0.0000    0.0000    0.0000 N   0  0  0  0  0  0  0  0  0  0  0  0
    0.0000    0.0000    0.0000 N   0  0  0  0  0  0  0  0  0  0  0  0
    0.0000    0.0000    0.0000 C   0  0  0  0  0  0  0  0  0  0  0  0
    0.0000    0.0000    0.0000 N   0  0  0  0  0  0  0  0  0  0  0  0
    0.0000    0.0000    0.0000 C   0  0  0  0  0  0  0  0  0  0  0  0
    0.0000    0.0000    0.0000 C   0  0  0  0  0  0  0  0  0  0  0  0
  1  2  1  0
  2  3  1  0
  3  4  1  0
  4  5  2  0
  5  6  1  0
  6  7  2  0
  7  8  1  0
  8  9  2  0
  2 10  1  0
 10 11  2  0
 11 12  1  0
 12 13  2  0
 13 14  1  0
 14 15  2  0
 15 16  1  0
 15 17  1  0
 17 18  2  0
 18 19  1  0
 18 20  1  0
 20 21  2  0
  9  4  1  0
 21 10  1  0
 20 13  1  0
M  END
>  <pIC50>  (279) 
6.16

>  <ChEMBL_ID>  (279) 
CHEMBL33038

>  <document_journal>  (279) 
J. Med. Chem.

>  <bao_endpoint>  (279) 
BAO_0000190

>  <potential_duplicate>  (279) 
False

>  <uo_units>  (279) 
UO_0000065

>  <canonical_smiles>  (279) 
CN(Cc1ccccc1)c2cnc3nc(N)nc(N)c3c2

>  <parent_molecule_chembl_id>  (279) 
CHEMBL33038

>  <assay_type>  (279) 
B

>  <src_id>  (279) 
1

>  <ligand_efficiency>  (279) 
{u'le': u'0.4', u'bei': u'21.96', u'sei': u'6.55', u'lle': u'4.4'}

>  <standard_flag>  (279) 
True

>  <molecule_chembl_id>  (279) 
CHEMBL33038

>  <target_organism>  (279) 
Homo sapiens

>  <standard_units>  (279) 
nM

>  <record_id>  (279) 
50868

>  <document_chembl_id>  (279) 
CHEMBL1129539

>  <bao_format>  (279) 
BAO_0000357

>  <data_validity_description>  (279) 
None

>  <activity_id>  (279) 
1116739

>  <standard_type>  (279) 
IC50

>  <target_chembl_id>  (279) 
CHEMBL202

>  <data_validity_comment>  (279) 
None

>  <published_value>  (279) 
700

>  <document_year>  (279) 
1996

>  <target_pref_name>  (279) 
Dihydrofolate reductase

>  <assay_chembl_id>  (279) 
CHEMBL668274

>  <standard_relation>  (279) 
=

>  <assay_description>  (279) 
Inhibitory activity against recombinant human dihydrofolate reductase(in 50 uM dihydrofolic acid)

>  <published_relation>  (279) 
=

>  <standard_value>  (279) 
700

>  <qudt_units>  (279) 
http://www.openphacts.org/units/Nanomolar

>  <target_tax_id>  (279) 
9606

>  <bao_label>  (279) 
single protein format

>  <published_units>  (279) 
nM

>  <pchembl_value>  (279) 
6.16

>  <published_type>  (279) 
IC50

>  <activity_comment>  (279) 
None

$$$$

     RDKit          

 32 34  0  0  0  0  0  0  0  0999 V2000
    0.0000    0.0000    0.0000 C   0  0  0  0  0  0  0  0  0  0  0  0
    0.0000    0.0000    0.0000 N   0  0  0  0  0  0  0  0  0  0  0  0
    0.0000    0.0000    0.0000 C   0  0  0  0  0  0  0  0  0  0  0  0
    0.0000    0.0000    0.0000 C   0  0  0  0  0  0  0  0  0  0  0  0
    0.0000    0.0000    0.0000 C   0  0  0  0  0  0  0  0  0  0  0  0
    0.0000    0.0000    0.0000 O   0  0  0  0  0  0  0  0  0  0  0  0
    0.0000    0.0000    0.0000 C   0  0  0  0  0  0  0  0  0  0  0  0
    0.0000    0.0000    0.0000 N   0  0  0  0  0  0  0  0  0  0  0  0
    0.0000    0.0000    0.0000 C   0  0  0  0  0  0  0  0  0  0  0  0
    0.0000    0.0000    0.0000 N   0  0  0  0  0  0  0  0  0  0  0  0
    0.0000    0.0000    0.0000 N   0  0  0  0  0  0  0  0  0  0  0  0
    0.0000    0.0000    0.0000 C   0  0  0  0  0  0  0  0  0  0  0  0
    0.0000    0.0000    0.0000 N   0  0  0  0  0  0  0  0  0  0  0  0
    0.0000    0.0000    0.0000 C   0  0  0  0  0  0  0  0  0  0  0  0
    0.0000    0.0000    0.0000 C   0  0  0  0  0  0  0  0  0  0  0  0
    0.0000    0.0000    0.0000 C   0  0  0  0  0  0  0  0  0  0  0  0
    0.0000    0.0000    0.0000 C   0  0  0  0  0  0  0  0  0  0  0  0
    0.0000    0.0000    0.0000 C   0  0  0  0  0  0  0  0  0  0  0  0
    0.0000    0.0000    0.0000 C   0  0  0  0  0  0  0  0  0  0  0  0
    0.0000    0.0000    0.0000 C   0  0  0  0  0  0  0  0  0  0  0  0
    0.0000    0.0000    0.0000 C   0  0  0  0  0  0  0  0  0  0  0  0
    0.0000    0.0000    0.0000 O   0  0  0  0  0  0  0  0  0  0  0  0
    0.0000    0.0000    0.0000 N   0  0  0  0  0  0  0  0  0  0  0  0
    0.0000    0.0000    0.0000 C   0  0  0  0  0  0  0  0  0  0  0  0
    0.0000    0.0000    0.0000 C   0  0  0  0  0  0  0  0  0  0  0  0
    0.0000    0.0000    0.0000 C   0  0  0  0  0  0  0  0  0  0  0  0
    0.0000    0.0000    0.0000 C   0  0  0  0  0  0  0  0  0  0  0  0
    0.0000    0.0000    0.0000 O   0  0  0  0  0  0  0  0  0  0  0  0
    0.0000    0.0000    0.0000 O   0  0  0  0  0  0  0  0  0  0  0  0
    0.0000    0.0000    0.0000 C   0  0  0  0  0  0  0  0  0  0  0  0
    0.0000    0.0000    0.0000 O   0  0  0  0  0  0  0  0  0  0  0  0
    0.0000    0.0000    0.0000 O   0  0  0  0  0  0  0  0  0  0  0  0
  1  2  1  0
  2  3  1  0
  3  4  1  0
  4  5  2  0
  5  6  1  0
  6  7  1  0
  7  8  2  0
  8  9  1  0
  9 10  1  0
  9 11  2  0
 11 12  1  0
 12 13  1  0
 12 14  2  0
  2 15  1  0
 15 16  2  0
 16 17  1  0
 17 18  2  0
 18 19  1  0
 19 20  2  0
 18 21  1  0
 21 22  2  0
 21 23  1  0
 23 24  1  0
 24 25  1  0
 25 26  1  0
 26 27  1  0
 27 28  2  0
 27 29  1  0
 24 30  1  0
 30 31  2  0
 30 32  1  0
 14  4  1  0
 14  7  1  0
 20 15  1  0
M  END
>  <pIC50>  (280) 
6.66

>  <ChEMBL_ID>  (280) 
CHEMBL278515

>  <document_journal>  (280) 
J. Med. Chem.

>  <bao_endpoint>  (280) 
BAO_0000190

>  <potential_duplicate>  (280) 
False

>  <uo_units>  (280) 
UO_0000065

>  <canonical_smiles>  (280) 
CN(Cc1coc2nc(N)nc(N)c12)c3ccc(cc3)C(=O)NC(CCC(=O)O)C(=O)O

>  <parent_molecule_chembl_id>  (280) 
CHEMBL278515

>  <assay_type>  (280) 
B

>  <src_id>  (280) 
1

>  <ligand_efficiency>  (280) 
{u'le': u'0.28', u'bei': u'15.05', u'sei': u'3.36', u'lle': u'5.92'}

>  <standard_flag>  (280) 
True

>  <molecule_chembl_id>  (280) 
CHEMBL278515

>  <target_organism>  (280) 
Homo sapiens

>  <standard_units>  (280) 
nM

>  <record_id>  (280) 
20121

>  <document_chembl_id>  (280) 
CHEMBL1127819

>  <bao_format>  (280) 
BAO_0000357

>  <data_validity_description>  (280) 
None

>  <activity_id>  (280) 
1119086

>  <standard_type>  (280) 
IC50

>  <target_chembl_id>  (280) 
CHEMBL202

>  <data_validity_comment>  (280) 
None

>  <published_value>  (280) 
0.22

>  <document_year>  (280) 
1994

>  <target_pref_name>  (280) 
Dihydrofolate reductase

>  <assay_chembl_id>  (280) 
CHEMBL668084

>  <standard_relation>  (280) 
=

>  <assay_description>  (280) 
Inhibitory concentration for DHFR in recombinant human

>  <published_relation>  (280) 
=

>  <standard_value>  (280) 
220

>  <qudt_units>  (280) 
http://www.openphacts.org/units/Nanomolar

>  <target_tax_id>  (280) 
9606

>  <bao_label>  (280) 
single protein format

>  <published_units>  (280) 
uM

>  <pchembl_value>  (280) 
6.66

>  <published_type>  (280) 
IC50

>  <activity_comment>  (280) 
None

$$$$

     RDKit          

 32 34  0  0  0  0  0  0  0  0999 V2000
    0.0000    0.0000    0.0000 N   0  0  0  0  0  0  0  0  0  0  0  0
    0.0000    0.0000    0.0000 C   0  0  0  0  0  0  0  0  0  0  0  0
    0.0000    0.0000    0.0000 C   0  0  0  0  0  0  0  0  0  0  0  0
    0.0000    0.0000    0.0000 C   0  0  0  0  0  0  0  0  0  0  0  0
    0.0000    0.0000    0.0000 C   0  0  0  0  0  0  0  0  0  0  0  0
    0.0000    0.0000    0.0000 O   0  0  0  0  0  0  0  0  0  0  0  0
    0.0000    0.0000    0.0000 O   0  0  0  0  0  0  0  0  0  0  0  0
    0.0000    0.0000    0.0000 C   0  0  0  0  0  0  0  0  0  0  0  0
    0.0000    0.0000    0.0000 O   0  0  0  0  0  0  0  0  0  0  0  0
    0.0000    0.0000    0.0000 N   0  0  0  0  0  0  0  0  0  0  0  0
    0.0000    0.0000    0.0000 C   0  0  0  0  0  0  0  0  0  0  0  0
    0.0000    0.0000    0.0000 O   0  0  0  0  0  0  0  0  0  0  0  0
    0.0000    0.0000    0.0000 C   0  0  0  0  0  0  0  0  0  0  0  0
    0.0000    0.0000    0.0000 C   0  0  0  0  0  0  0  0  0  0  0  0
    0.0000    0.0000    0.0000 C   0  0  0  0  0  0  0  0  0  0  0  0
    0.0000    0.0000    0.0000 C   0  0  0  0  0  0  0  0  0  0  0  0
    0.0000    0.0000    0.0000 C   0  0  0  0  0  0  0  0  0  0  0  0
    0.0000    0.0000    0.0000 N   0  0  0  0  0  0  0  0  0  0  0  0
    0.0000    0.0000    0.0000 C   0  0  0  0  0  0  0  0  0  0  0  0
    0.0000    0.0000    0.0000 C   0  0  0  0  0  0  0  0  0  0  0  0
    0.0000    0.0000    0.0000 N   0  0  0  0  0  0  0  0  0  0  0  0
    0.0000    0.0000    0.0000 C   0  0  0  0  0  0  0  0  0  0  0  0
    0.0000    0.0000    0.0000 N   0  0  0  0  0  0  0  0  0  0  0  0
    0.0000    0.0000    0.0000 C   0  0  0  0  0  0  0  0  0  0  0  0
    0.0000    0.0000    0.0000 N   0  0  0  0  0  0  0  0  0  0  0  0
    0.0000    0.0000    0.0000 N   0  0  0  0  0  0  0  0  0  0  0  0
    0.0000    0.0000    0.0000 C   0  0  0  0  0  0  0  0  0  0  0  0
    0.0000    0.0000    0.0000 N   0  0  0  0  0  0  0  0  0  0  0  0
    0.0000    0.0000    0.0000 C   0  0  0  0  0  0  0  0  0  0  0  0
    0.0000    0.0000    0.0000 C   0  0  0  0  0  0  0  0  0  0  0  0
    0.0000    0.0000    0.0000 C   0  0  0  0  0  0  0  0  0  0  0  0
    0.0000    0.0000    0.0000 C   0  0  0  0  0  0  0  0  0  0  0  0
  1  2  1  0
  2  3  1  0
  3  4  1  0
  4  5  1  0
  5  6  2  0
  5  7  1  0
  2  8  1  0
  8  9  2  0
  8 10  1  0
 10 11  1  0
 11 12  2  0
 11 13  1  0
 13 14  2  0
 14 15  1  0
 15 16  2  0
 16 17  1  0
 17 18  1  0
 18 19  1  0
 19 20  2  0
 20 21  1  0
 21 22  2  0
 22 23  1  0
 23 24  2  0
 24 25  1  0
 24 26  1  0
 26 27  2  0
 27 28  1  0
 27 29  1  0
 29 30  2  0
 16 31  1  0
 31 32  2  0
 32 13  1  0
 30 19  1  0
 29 22  1  0
M  END
>  <pIC50>  (281) 
6.5

>  <ChEMBL_ID>  (281) 
CHEMBL33045

>  <document_journal>  (281) 
J. Med. Chem.

>  <bao_endpoint>  (281) 
BAO_0000190

>  <potential_duplicate>  (281) 
False

>  <uo_units>  (281) 
UO_0000065

>  <canonical_smiles>  (281) 
N[C@H](CCC(=O)O)C(=O)NC(=O)c1ccc(CNc2cnc3nc(N)nc(N)c3c2)cc1

>  <parent_molecule_chembl_id>  (281) 
CHEMBL33045

>  <assay_type>  (281) 
B

>  <src_id>  (281) 
1

>  <ligand_efficiency>  (281) 
{u'le': u'0.28', u'bei': u'14.81', u'sei': u'3.06', u'lle': u'9.36'}

>  <standard_flag>  (281) 
True

>  <molecule_chembl_id>  (281) 
CHEMBL33045

>  <target_organism>  (281) 
Homo sapiens

>  <standard_units>  (281) 
nM

>  <record_id>  (281) 
50871

>  <document_chembl_id>  (281) 
CHEMBL1129539

>  <bao_format>  (281) 
BAO_0000357

>  <data_validity_description>  (281) 
None

>  <activity_id>  (281) 
1122616

>  <standard_type>  (281) 
IC50

>  <target_chembl_id>  (281) 
CHEMBL202

>  <data_validity_comment>  (281) 
None

>  <published_value>  (281) 
320

>  <document_year>  (281) 
1996

>  <target_pref_name>  (281) 
Dihydrofolate reductase

>  <assay_chembl_id>  (281) 
CHEMBL668274

>  <standard_relation>  (281) 
=

>  <assay_description>  (281) 
Inhibitory activity against recombinant human dihydrofolate reductase(in 50 uM dihydrofolic acid)

>  <published_relation>  (281) 
=

>  <standard_value>  (281) 
320

>  <qudt_units>  (281) 
http://www.openphacts.org/units/Nanomolar

>  <target_tax_id>  (281) 
9606

>  <bao_label>  (281) 
single protein format

>  <published_units>  (281) 
nM

>  <pchembl_value>  (281) 
6.5

>  <published_type>  (281) 
IC50

>  <activity_comment>  (281) 
None

$$$$

     RDKit          

 44 47  0  0  0  0  0  0  0  0999 V2000
    0.0000    0.0000    0.0000 N   0  0  0  0  0  0  0  0  0  0  0  0
    0.0000    0.0000    0.0000 C   0  0  0  0  0  0  0  0  0  0  0  0
    0.0000    0.0000    0.0000 N   0  0  0  0  0  0  0  0  0  0  0  0
    0.0000    0.0000    0.0000 C   0  0  0  0  0  0  0  0  0  0  0  0
    0.0000    0.0000    0.0000 N   0  0  0  0  0  0  0  0  0  0  0  0
    0.0000    0.0000    0.0000 C   0  0  0  0  0  0  0  0  0  0  0  0
    0.0000    0.0000    0.0000 N   0  0  0  0  0  0  0  0  0  0  0  0
    0.0000    0.0000    0.0000 C   0  0  0  0  0  0  0  0  0  0  0  0
    0.0000    0.0000    0.0000 C   0  0  0  0  0  0  0  0  0  0  0  0
    0.0000    0.0000    0.0000 N   0  0  0  0  0  0  0  0  0  0  0  0
    0.0000    0.0000    0.0000 C   0  0  0  0  0  0  0  0  0  0  0  0
    0.0000    0.0000    0.0000 C   0  0  0  0  0  0  0  0  0  0  0  0
    0.0000    0.0000    0.0000 Cl  0  0  0  0  0  0  0  0  0  0  0  0
    0.0000    0.0000    0.0000 C   0  0  0  0  0  0  0  0  0  0  0  0
    0.0000    0.0000    0.0000 C   0  0  0  0  0  0  0  0  0  0  0  0
    0.0000    0.0000    0.0000 C   0  0  0  0  0  0  0  0  0  0  0  0
    0.0000    0.0000    0.0000 C   0  0  0  0  0  0  0  0  0  0  0  0
    0.0000    0.0000    0.0000 Cl  0  0  0  0  0  0  0  0  0  0  0  0
    0.0000    0.0000    0.0000 C   0  0  0  0  0  0  0  0  0  0  0  0
    0.0000    0.0000    0.0000 O   0  0  0  0  0  0  0  0  0  0  0  0
    0.0000    0.0000    0.0000 N   0  0  0  0  0  0  0  0  0  0  0  0
    0.0000    0.0000    0.0000 C   0  0  0  0  0  0  0  0  0  0  0  0
    0.0000    0.0000    0.0000 C   0  0  0  0  0  0  0  0  0  0  0  0
    0.0000    0.0000    0.0000 C   0  0  0  0  0  0  0  0  0  0  0  0
    0.0000    0.0000    0.0000 C   0  0  0  0  0  0  0  0  0  0  0  0
    0.0000    0.0000    0.0000 N   0  0  0  0  0  0  0  0  0  0  0  0
    0.0000    0.0000    0.0000 C   0  0  0  0  0  0  0  0  0  0  0  0
    0.0000    0.0000    0.0000 O   0  0  0  0  0  0  0  0  0  0  0  0
    0.0000    0.0000    0.0000 C   0  0  0  0  0  0  0  0  0  0  0  0
    0.0000    0.0000    0.0000 C   0  0  0  0  0  0  0  0  0  0  0  0
    0.0000    0.0000    0.0000 C   0  0  0  0  0  0  0  0  0  0  0  0
    0.0000    0.0000    0.0000 C   0  0  0  0  0  0  0  0  0  0  0  0
    0.0000    0.0000    0.0000 C   0  0  0  0  0  0  0  0  0  0  0  0
    0.0000    0.0000    0.0000 C   0  0  0  0  0  0  0  0  0  0  0  0
    0.0000    0.0000    0.0000 C   0  0  0  0  0  0  0  0  0  0  0  0
    0.0000    0.0000    0.0000 O   0  0  0  0  0  0  0  0  0  0  0  0
    0.0000    0.0000    0.0000 O   0  0  0  0  0  0  0  0  0  0  0  0
    0.0000    0.0000    0.0000 C   0  0  0  0  0  0  0  0  0  0  0  0
    0.0000    0.0000    0.0000 O   0  0  0  0  0  0  0  0  0  0  0  0
    0.0000    0.0000    0.0000 O   0  0  0  0  0  0  0  0  0  0  0  0
    0.0000    0.0000    0.0000 C   0  0  0  0  0  0  0  0  0  0  0  0
    0.0000    0.0000    0.0000 N   0  0  0  0  0  0  0  0  0  0  0  0
    0.0000    0.0000    0.0000 C   0  0  0  0  0  0  0  0  0  0  0  0
    0.0000    0.0000    0.0000 N   0  0  0  0  0  0  0  0  0  0  0  0
  1  2  1  0
  2  3  2  0
  3  4  1  0
  4  5  1  0
  4  6  2  0
  6  7  1  0
  7  8  2  0
  8  9  1  0
  9 10  1  0
 10 11  1  0
 11 12  2  0
 12 13  1  0
 12 14  1  0
 14 15  2  0
 15 16  1  0
 16 17  2  0
 17 18  1  0
 15 19  1  0
 19 20  2  0
 19 21  1  0
 21 22  1  0
 22 23  1  0
 23 24  1  0
 24 25  1  0
 25 26  1  0
 26 27  1  0
 27 28  2  0
 27 29  1  0
 29 30  2  0
 30 31  1  0
 31 32  2  0
 32 33  1  0
 33 34  2  0
 34 35  1  0
 35 36  2  0
 35 37  1  0
 22 38  1  0
 38 39  2  0
 38 40  1  0
  8 41  1  0
 41 42  2  0
 42 43  1  0
 43 44  2  0
 44  2  1  0
 43  6  1  0
 17 11  1  0
 34 29  1  0
M  END
>  <pIC50>  (282) 
7.99

>  <ChEMBL_ID>  (282) 
CHEMBL309160

>  <document_journal>  (282) 
J. Med. Chem.

>  <bao_endpoint>  (282) 
BAO_0000190

>  <potential_duplicate>  (282) 
False

>  <uo_units>  (282) 
UO_0000065

>  <canonical_smiles>  (282) 
Nc1nc(N)c2nc(CNc3c(Cl)cc(cc3Cl)C(=O)NC(CCCNC(=O)c4ccccc4C(=O)O)C(=O)O)cnc2n1

>  <parent_molecule_chembl_id>  (282) 
CHEMBL309160

>  <assay_type>  (282) 
B

>  <src_id>  (282) 
1

>  <ligand_efficiency>  (282) 
{u'le': u'0.25', u'bei': u'12.44', u'sei': u'3.22', u'lle': u'5.82'}

>  <standard_flag>  (282) 
True

>  <molecule_chembl_id>  (282) 
CHEMBL309160

>  <target_organism>  (282) 
Homo sapiens

>  <standard_units>  (282) 
nM

>  <record_id>  (282) 
120994

>  <document_chembl_id>  (282) 
CHEMBL1127804

>  <bao_format>  (282) 
BAO_0000357

>  <data_validity_description>  (282) 
None

>  <activity_id>  (282) 
1134838

>  <standard_type>  (282) 
IC50

>  <target_chembl_id>  (282) 
CHEMBL202

>  <data_validity_comment>  (282) 
None

>  <published_value>  (282) 
10.2

>  <document_year>  (282) 
1994

>  <target_pref_name>  (282) 
Dihydrofolate reductase

>  <assay_chembl_id>  (282) 
CHEMBL668671

>  <standard_relation>  (282) 
=

>  <assay_description>  (282) 
Tested for inhibitory concentration against human dihydrofolate reductase(DHFR)

>  <published_relation>  (282) 
=

>  <standard_value>  (282) 
10.2

>  <qudt_units>  (282) 
http://www.openphacts.org/units/Nanomolar

>  <target_tax_id>  (282) 
9606

>  <bao_label>  (282) 
single protein format

>  <published_units>  (282) 
nM

>  <pchembl_value>  (282) 
7.99

>  <published_type>  (282) 
IC50

>  <activity_comment>  (282) 
None

$$$$

     RDKit          

 33 35  0  0  0  0  0  0  0  0999 V2000
    0.0000    0.0000    0.0000 C   0  0  0  0  0  0  0  0  0  0  0  0
    0.0000    0.0000    0.0000 N   0  0  0  0  0  0  0  0  0  0  0  0
    0.0000    0.0000    0.0000 C   0  0  0  0  0  0  0  0  0  0  0  0
    0.0000    0.0000    0.0000 C   0  0  0  0  0  0  0  0  0  0  0  0
    0.0000    0.0000    0.0000 C   0  0  0  0  0  0  0  0  0  0  0  0
    0.0000    0.0000    0.0000 C   0  0  0  0  0  0  0  0  0  0  0  0
    0.0000    0.0000    0.0000 C   0  0  0  0  0  0  0  0  0  0  0  0
    0.0000    0.0000    0.0000 C   0  0  0  0  0  0  0  0  0  0  0  0
    0.0000    0.0000    0.0000 C   0  0  0  0  0  0  0  0  0  0  0  0
    0.0000    0.0000    0.0000 C   0  0  0  0  0  0  0  0  0  0  0  0
    0.0000    0.0000    0.0000 O   0  0  0  0  0  0  0  0  0  0  0  0
    0.0000    0.0000    0.0000 N   0  0  0  0  0  0  0  0  0  0  0  0
    0.0000    0.0000    0.0000 C   0  0  0  0  0  0  0  0  0  0  0  0
    0.0000    0.0000    0.0000 O   0  0  0  0  0  0  0  0  0  0  0  0
    0.0000    0.0000    0.0000 C   0  0  0  0  0  0  0  0  0  0  0  0
    0.0000    0.0000    0.0000 N   0  0  0  0  0  0  0  0  0  0  0  0
    0.0000    0.0000    0.0000 C   0  0  0  0  0  0  0  0  0  0  0  0
    0.0000    0.0000    0.0000 C   0  0  0  0  0  0  0  0  0  0  0  0
    0.0000    0.0000    0.0000 C   0  0  0  0  0  0  0  0  0  0  0  0
    0.0000    0.0000    0.0000 O   0  0  0  0  0  0  0  0  0  0  0  0
    0.0000    0.0000    0.0000 O   0  0  0  0  0  0  0  0  0  0  0  0
    0.0000    0.0000    0.0000 C   0  0  0  0  0  0  0  0  0  0  0  0
    0.0000    0.0000    0.0000 C   0  0  0  0  0  0  0  0  0  0  0  0
    0.0000    0.0000    0.0000 N   0  0  0  0  0  0  0  0  0  0  0  0
    0.0000    0.0000    0.0000 C   0  0  0  0  0  0  0  0  0  0  0  0
    0.0000    0.0000    0.0000 N   0  0  0  0  0  0  0  0  0  0  0  0
    0.0000    0.0000    0.0000 C   0  0  0  0  0  0  0  0  0  0  0  0
    0.0000    0.0000    0.0000 N   0  0  0  0  0  0  0  0  0  0  0  0
    0.0000    0.0000    0.0000 N   0  0  0  0  0  0  0  0  0  0  0  0
    0.0000    0.0000    0.0000 C   0  0  0  0  0  0  0  0  0  0  0  0
    0.0000    0.0000    0.0000 N   0  0  0  0  0  0  0  0  0  0  0  0
    0.0000    0.0000    0.0000 C   0  0  0  0  0  0  0  0  0  0  0  0
    0.0000    0.0000    0.0000 C   0  0  0  0  0  0  0  0  0  0  0  0
  1  2  1  0
  2  3  1  0
  3  4  1  0
  4  5  2  0
  5  6  1  0
  6  7  2  0
  7  8  1  0
  8  9  2  0
  7 10  1  0
 10 11  2  0
 10 12  1  0
 12 13  1  0
 13 14  2  0
 13 15  1  0
 15 16  1  0
 15 17  1  0
 17 18  1  0
 18 19  1  0
 19 20  2  0
 19 21  1  0
  2 22  1  0
 22 23  2  0
 23 24  1  0
 24 25  2  0
 25 26  1  0
 26 27  2  0
 27 28  1  0
 27 29  1  0
 29 30  2  0
 30 31  1  0
 30 32  1  0
 32 33  2  0
  9  4  1  0
 33 22  1  0
 32 25  1  0
M  END
>  <pIC50>  (283) 
6.19

>  <ChEMBL_ID>  (283) 
CHEMBL33815

>  <document_journal>  (283) 
J. Med. Chem.

>  <bao_endpoint>  (283) 
BAO_0000190

>  <potential_duplicate>  (283) 
False

>  <uo_units>  (283) 
UO_0000065

>  <canonical_smiles>  (283) 
CN(Cc1ccc(cc1)C(=O)NC(=O)[C@H](N)CCC(=O)O)c2cnc3nc(N)nc(N)c3c2

>  <parent_molecule_chembl_id>  (283) 
CHEMBL33815

>  <assay_type>  (283) 
B

>  <src_id>  (283) 
1

>  <ligand_efficiency>  (283) 
{u'le': u'0.26', u'bei': u'13.67', u'sei': u'3.04', u'lle': u'8.71'}

>  <standard_flag>  (283) 
True

>  <molecule_chembl_id>  (283) 
CHEMBL33815

>  <target_organism>  (283) 
Homo sapiens

>  <standard_units>  (283) 
nM

>  <record_id>  (283) 
50866

>  <document_chembl_id>  (283) 
CHEMBL1129539

>  <bao_format>  (283) 
BAO_0000357

>  <data_validity_description>  (283) 
None

>  <activity_id>  (283) 
1136136

>  <standard_type>  (283) 
IC50

>  <target_chembl_id>  (283) 
CHEMBL202

>  <data_validity_comment>  (283) 
None

>  <published_value>  (283) 
650

>  <document_year>  (283) 
1996

>  <target_pref_name>  (283) 
Dihydrofolate reductase

>  <assay_chembl_id>  (283) 
CHEMBL668274

>  <standard_relation>  (283) 
=

>  <assay_description>  (283) 
Inhibitory activity against recombinant human dihydrofolate reductase(in 50 uM dihydrofolic acid)

>  <published_relation>  (283) 
=

>  <standard_value>  (283) 
650

>  <qudt_units>  (283) 
http://www.openphacts.org/units/Nanomolar

>  <target_tax_id>  (283) 
9606

>  <bao_label>  (283) 
single protein format

>  <published_units>  (283) 
nM

>  <pchembl_value>  (283) 
6.19

>  <published_type>  (283) 
IC50

>  <activity_comment>  (283) 
None

$$$$

     RDKit          

 27 29  0  0  0  0  0  0  0  0999 V2000
    0.0000    0.0000    0.0000 C   0  0  0  0  0  0  0  0  0  0  0  0
    0.0000    0.0000    0.0000 O   0  0  0  0  0  0  0  0  0  0  0  0
    0.0000    0.0000    0.0000 C   0  0  0  0  0  0  0  0  0  0  0  0
    0.0000    0.0000    0.0000 C   0  0  0  0  0  0  0  0  0  0  0  0
    0.0000    0.0000    0.0000 C   0  0  0  0  0  0  0  0  0  0  0  0
    0.0000    0.0000    0.0000 C   0  0  0  0  0  0  0  0  0  0  0  0
    0.0000    0.0000    0.0000 C   0  0  0  0  0  0  0  0  0  0  0  0
    0.0000    0.0000    0.0000 N   0  0  0  0  0  0  0  0  0  0  0  0
    0.0000    0.0000    0.0000 C   0  0  0  0  0  0  0  0  0  0  0  0
    0.0000    0.0000    0.0000 C   0  0  0  0  0  0  0  0  0  0  0  0
    0.0000    0.0000    0.0000 C   0  0  0  0  0  0  0  0  0  0  0  0
    0.0000    0.0000    0.0000 N   0  0  0  0  0  0  0  0  0  0  0  0
    0.0000    0.0000    0.0000 C   0  0  0  0  0  0  0  0  0  0  0  0
    0.0000    0.0000    0.0000 N   0  0  0  0  0  0  0  0  0  0  0  0
    0.0000    0.0000    0.0000 C   0  0  0  0  0  0  0  0  0  0  0  0
    0.0000    0.0000    0.0000 N   0  0  0  0  0  0  0  0  0  0  0  0
    0.0000    0.0000    0.0000 N   0  0  0  0  0  0  0  0  0  0  0  0
    0.0000    0.0000    0.0000 C   0  0  0  0  0  0  0  0  0  0  0  0
    0.0000    0.0000    0.0000 N   0  0  0  0  0  0  0  0  0  0  0  0
    0.0000    0.0000    0.0000 C   0  0  0  0  0  0  0  0  0  0  0  0
    0.0000    0.0000    0.0000 C   0  0  0  0  0  0  0  0  0  0  0  0
    0.0000    0.0000    0.0000 C   0  0  0  0  0  0  0  0  0  0  0  0
    0.0000    0.0000    0.0000 O   0  0  0  0  0  0  0  0  0  0  0  0
    0.0000    0.0000    0.0000 C   0  0  0  0  0  0  0  0  0  0  0  0
    0.0000    0.0000    0.0000 C   0  0  0  0  0  0  0  0  0  0  0  0
    0.0000    0.0000    0.0000 O   0  0  0  0  0  0  0  0  0  0  0  0
    0.0000    0.0000    0.0000 C   0  0  0  0  0  0  0  0  0  0  0  0
  1  2  1  0
  2  3  1  0
  3  4  2  0
  4  5  1  0
  5  6  2  0
  6  7  1  0
  7  8  1  0
  8  9  1  0
  8 10  1  0
 10 11  2  0
 11 12  1  0
 12 13  2  0
 13 14  1  0
 14 15  2  0
 15 16  1  0
 15 17  1  0
 17 18  2  0
 18 19  1  0
 18 20  1  0
 20 21  2  0
  6 22  1  0
 22 23  1  0
 23 24  1  0
 22 25  2  0
 25 26  1  0
 26 27  1  0
 25  3  1  0
 21 10  1  0
 20 13  1  0
M  END
>  <pIC50>  (284) 
6.28

>  <ChEMBL_ID>  (284) 
CHEMBL35222

>  <document_journal>  (284) 
J. Med. Chem.

>  <bao_endpoint>  (284) 
BAO_0000190

>  <potential_duplicate>  (284) 
False

>  <uo_units>  (284) 
UO_0000065

>  <canonical_smiles>  (284) 
COc1ccc(CN(C)c2cnc3nc(N)nc(N)c3c2)c(OC)c1OC

>  <parent_molecule_chembl_id>  (284) 
CHEMBL35222

>  <assay_type>  (284) 
B

>  <src_id>  (284) 
1

>  <ligand_efficiency>  (284) 
{u'le': u'0.32', u'bei': u'16.94', u'sei': u'5.16', u'lle': u'4.58'}

>  <standard_flag>  (284) 
True

>  <molecule_chembl_id>  (284) 
CHEMBL35222

>  <target_organism>  (284) 
Homo sapiens

>  <standard_units>  (284) 
nM

>  <record_id>  (284) 
50890

>  <document_chembl_id>  (284) 
CHEMBL1129539

>  <bao_format>  (284) 
BAO_0000357

>  <data_validity_description>  (284) 
None

>  <activity_id>  (284) 
1137346

>  <standard_type>  (284) 
IC50

>  <target_chembl_id>  (284) 
CHEMBL202

>  <data_validity_comment>  (284) 
None

>  <published_value>  (284) 
530

>  <document_year>  (284) 
1996

>  <target_pref_name>  (284) 
Dihydrofolate reductase

>  <assay_chembl_id>  (284) 
CHEMBL668274

>  <standard_relation>  (284) 
=

>  <assay_description>  (284) 
Inhibitory activity against recombinant human dihydrofolate reductase(in 50 uM dihydrofolic acid)

>  <published_relation>  (284) 
=

>  <standard_value>  (284) 
530

>  <qudt_units>  (284) 
http://www.openphacts.org/units/Nanomolar

>  <target_tax_id>  (284) 
9606

>  <bao_label>  (284) 
single protein format

>  <published_units>  (284) 
nM

>  <pchembl_value>  (284) 
6.28

>  <published_type>  (284) 
IC50

>  <activity_comment>  (284) 
None

$$$$

     RDKit          

 20 22  0  0  0  0  0  0  0  0999 V2000
    0.0000    0.0000    0.0000 N   0  0  0  0  0  0  0  0  0  0  0  0
    0.0000    0.0000    0.0000 C   0  0  0  0  0  0  0  0  0  0  0  0
    0.0000    0.0000    0.0000 N   0  0  0  0  0  0  0  0  0  0  0  0
    0.0000    0.0000    0.0000 C   0  0  0  0  0  0  0  0  0  0  0  0
    0.0000    0.0000    0.0000 N   0  0  0  0  0  0  0  0  0  0  0  0
    0.0000    0.0000    0.0000 C   0  0  0  0  0  0  0  0  0  0  0  0
    0.0000    0.0000    0.0000 C   0  0  0  0  0  0  0  0  0  0  0  0
    0.0000    0.0000    0.0000 C   0  0  0  0  0  0  0  0  0  0  0  0
    0.0000    0.0000    0.0000 N   0  0  0  0  0  0  0  0  0  0  0  0
    0.0000    0.0000    0.0000 C   0  0  0  0  0  0  0  0  0  0  0  0
    0.0000    0.0000    0.0000 C   0  0  0  0  0  0  0  0  0  0  0  0
    0.0000    0.0000    0.0000 C   0  0  0  0  0  0  0  0  0  0  0  0
    0.0000    0.0000    0.0000 C   0  0  0  0  0  0  0  0  0  0  0  0
    0.0000    0.0000    0.0000 C   0  0  0  0  0  0  0  0  0  0  0  0
    0.0000    0.0000    0.0000 C   0  0  0  0  0  0  0  0  0  0  0  0
    0.0000    0.0000    0.0000 C   0  0  0  0  0  0  0  0  0  0  0  0
    0.0000    0.0000    0.0000 C   0  0  0  0  0  0  0  0  0  0  0  0
    0.0000    0.0000    0.0000 N   0  0  0  0  0  0  0  0  0  0  0  0
    0.0000    0.0000    0.0000 C   0  0  0  0  0  0  0  0  0  0  0  0
    0.0000    0.0000    0.0000 N   0  0  0  0  0  0  0  0  0  0  0  0
  1  2  1  0
  2  3  2  0
  3  4  1  0
  4  5  1  0
  4  6  2  0
  6  7  1  0
  7  8  2  0
  8  9  1  0
  9 10  1  0
 10 11  1  0
 11 12  2  0
 12 13  1  0
 13 14  2  0
 14 15  1  0
 15 16  2  0
  8 17  1  0
 17 18  2  0
 18 19  1  0
 19 20  2  0
 20  2  1  0
 19  6  1  0
 16 11  1  0
M  END
>  <pIC50>  (285) 
5.21

>  <ChEMBL_ID>  (285) 
CHEMBL286700

>  <document_journal>  (285) 
J. Med. Chem.

>  <bao_endpoint>  (285) 
BAO_0000190

>  <potential_duplicate>  (285) 
False

>  <uo_units>  (285) 
UO_0000065

>  <canonical_smiles>  (285) 
Nc1nc(N)c2cc(NCc3ccccc3)cnc2n1

>  <parent_molecule_chembl_id>  (285) 
CHEMBL286700

>  <assay_type>  (285) 
B

>  <src_id>  (285) 
1

>  <ligand_efficiency>  (285) 
{u'le': u'0.36', u'bei': u'19.56', u'sei': u'5.07', u'lle': u'3.82'}

>  <standard_flag>  (285) 
True

>  <molecule_chembl_id>  (285) 
CHEMBL286700

>  <target_organism>  (285) 
Homo sapiens

>  <standard_units>  (285) 
nM

>  <record_id>  (285) 
50886

>  <document_chembl_id>  (285) 
CHEMBL1129539

>  <bao_format>  (285) 
BAO_0000357

>  <data_validity_description>  (285) 
None

>  <activity_id>  (285) 
1137419

>  <standard_type>  (285) 
IC50

>  <target_chembl_id>  (285) 
CHEMBL202

>  <data_validity_comment>  (285) 
None

>  <published_value>  (285) 
6200

>  <document_year>  (285) 
1996

>  <target_pref_name>  (285) 
Dihydrofolate reductase

>  <assay_chembl_id>  (285) 
CHEMBL668274

>  <standard_relation>  (285) 
=

>  <assay_description>  (285) 
Inhibitory activity against recombinant human dihydrofolate reductase(in 50 uM dihydrofolic acid)

>  <published_relation>  (285) 
=

>  <standard_value>  (285) 
6200

>  <qudt_units>  (285) 
http://www.openphacts.org/units/Nanomolar

>  <target_tax_id>  (285) 
9606

>  <bao_label>  (285) 
single protein format

>  <published_units>  (285) 
nM

>  <pchembl_value>  (285) 
5.21

>  <published_type>  (285) 
IC50

>  <activity_comment>  (285) 
None

$$$$

     RDKit          

 31 33  0  0  0  0  0  0  0  0999 V2000
    0.0000    0.0000    0.0000 N   0  0  0  0  0  0  0  0  0  0  0  0
    0.0000    0.0000    0.0000 C   0  0  0  0  0  0  0  0  0  0  0  0
    0.0000    0.0000    0.0000 N   0  0  0  0  0  0  0  0  0  0  0  0
    0.0000    0.0000    0.0000 C   0  0  0  0  0  0  0  0  0  0  0  0
    0.0000    0.0000    0.0000 N   0  0  0  0  0  0  0  0  0  0  0  0
    0.0000    0.0000    0.0000 C   0  0  0  0  0  0  0  0  0  0  0  0
    0.0000    0.0000    0.0000 C   0  0  0  0  0  0  0  0  0  0  0  0
    0.0000    0.0000    0.0000 C   0  0  0  0  0  0  0  0  0  0  0  0
    0.0000    0.0000    0.0000 N   0  0  0  0  0  0  0  0  0  0  0  0
    0.0000    0.0000    0.0000 C   0  0  0  0  0  0  0  0  0  0  0  0
    0.0000    0.0000    0.0000 C   0  0  0  0  0  0  0  0  0  0  0  0
    0.0000    0.0000    0.0000 C   0  0  0  0  0  0  0  0  0  0  0  0
    0.0000    0.0000    0.0000 C   0  0  0  0  0  0  0  0  0  0  0  0
    0.0000    0.0000    0.0000 C   0  0  0  0  0  0  0  0  0  0  0  0
    0.0000    0.0000    0.0000 C   0  0  0  0  0  0  0  0  0  0  0  0
    0.0000    0.0000    0.0000 C   0  0  0  0  0  0  0  0  0  0  0  0
    0.0000    0.0000    0.0000 O   0  0  0  0  0  0  0  0  0  0  0  0
    0.0000    0.0000    0.0000 N   0  0  0  0  0  0  0  0  0  0  0  0
    0.0000    0.0000    0.0000 C   0  0  0  0  0  0  0  0  0  0  0  0
    0.0000    0.0000    0.0000 C   0  0  0  0  0  0  0  0  0  0  0  0
    0.0000    0.0000    0.0000 C   0  0  0  0  0  0  0  0  0  0  0  0
    0.0000    0.0000    0.0000 C   0  0  0  0  0  0  0  0  0  0  0  0
    0.0000    0.0000    0.0000 O   0  0  0  0  0  0  0  0  0  0  0  0
    0.0000    0.0000    0.0000 O   0  0  0  0  0  0  0  0  0  0  0  0
    0.0000    0.0000    0.0000 C   0  0  0  0  0  0  0  0  0  0  0  0
    0.0000    0.0000    0.0000 O   0  0  0  0  0  0  0  0  0  0  0  0
    0.0000    0.0000    0.0000 O   0  0  0  0  0  0  0  0  0  0  0  0
    0.0000    0.0000    0.0000 C   0  0  0  0  0  0  0  0  0  0  0  0
    0.0000    0.0000    0.0000 O   0  0  0  0  0  0  0  0  0  0  0  0
    0.0000    0.0000    0.0000 C   0  0  0  0  0  0  0  0  0  0  0  0
    0.0000    0.0000    0.0000 N   0  0  0  0  0  0  0  0  0  0  0  0
  1  2  1  0
  2  3  2  0
  3  4  1  0
  4  5  1  0
  4  6  2  0
  6  7  1  0
  7  8  1  0
  8  9  1  0
  9 10  1  0
 10 11  2  0
 11 12  1  0
 12 13  2  0
 13 14  1  0
 14 15  2  0
 13 16  1  0
 16 17  2  0
 16 18  1  0
 18 19  1  0
 19 20  1  0
 20 21  1  0
 21 22  1  0
 22 23  2  0
 22 24  1  0
 19 25  1  0
 25 26  2  0
 25 27  1  0
  7 28  2  0
 28 29  1  0
 29 30  1  0
 30 31  2  0
 31  2  1  0
 30  6  1  0
 15 10  1  0
M  END
>  <pIC50>  (286) 
6.35

>  <ChEMBL_ID>  (286) 
CHEMBL17383

>  <document_journal>  (286) 
J. Med. Chem.

>  <bao_endpoint>  (286) 
BAO_0000190

>  <potential_duplicate>  (286) 
False

>  <uo_units>  (286) 
UO_0000065

>  <canonical_smiles>  (286) 
Nc1nc(N)c2c(CNc3ccc(cc3)C(=O)NC(CCC(=O)O)C(=O)O)coc2n1

>  <parent_molecule_chembl_id>  (286) 
CHEMBL17383

>  <assay_type>  (286) 
B

>  <src_id>  (286) 
1

>  <ligand_efficiency>  (286) 
{u'le': u'0.28', u'bei': u'14.82', u'sei': u'3.07', u'lle': u'5.96'}

>  <standard_flag>  (286) 
True

>  <molecule_chembl_id>  (286) 
CHEMBL17383

>  <target_organism>  (286) 
Homo sapiens

>  <standard_units>  (286) 
nM

>  <record_id>  (286) 
20115

>  <document_chembl_id>  (286) 
CHEMBL1127819

>  <bao_format>  (286) 
BAO_0000357

>  <data_validity_description>  (286) 
None

>  <activity_id>  (286) 
1138581

>  <standard_type>  (286) 
IC50

>  <target_chembl_id>  (286) 
CHEMBL202

>  <data_validity_comment>  (286) 
None

>  <published_value>  (286) 
0.45

>  <document_year>  (286) 
1994

>  <target_pref_name>  (286) 
Dihydrofolate reductase

>  <assay_chembl_id>  (286) 
CHEMBL668084

>  <standard_relation>  (286) 
=

>  <assay_description>  (286) 
Inhibitory concentration for DHFR in recombinant human

>  <published_relation>  (286) 
=

>  <standard_value>  (286) 
450

>  <qudt_units>  (286) 
http://www.openphacts.org/units/Nanomolar

>  <target_tax_id>  (286) 
9606

>  <bao_label>  (286) 
single protein format

>  <published_units>  (286) 
uM

>  <pchembl_value>  (286) 
6.35

>  <published_type>  (286) 
IC50

>  <activity_comment>  (286) 
None

$$$$

     RDKit          

 42 45  0  0  0  0  0  0  0  0999 V2000
    0.0000    0.0000    0.0000 N   0  0  0  0  0  0  0  0  0  0  0  0
    0.0000    0.0000    0.0000 C   0  0  0  0  0  0  0  0  0  0  0  0
    0.0000    0.0000    0.0000 N   0  0  0  0  0  0  0  0  0  0  0  0
    0.0000    0.0000    0.0000 C   0  0  0  0  0  0  0  0  0  0  0  0
    0.0000    0.0000    0.0000 N   0  0  0  0  0  0  0  0  0  0  0  0
    0.0000    0.0000    0.0000 C   0  0  0  0  0  0  0  0  0  0  0  0
    0.0000    0.0000    0.0000 N   0  0  0  0  0  0  0  0  0  0  0  0
    0.0000    0.0000    0.0000 C   0  0  0  0  0  0  0  0  0  0  0  0
    0.0000    0.0000    0.0000 C   0  0  0  0  0  0  0  0  0  0  0  0
    0.0000    0.0000    0.0000 N   0  0  0  0  0  0  0  0  0  0  0  0
    0.0000    0.0000    0.0000 C   0  0  0  0  0  0  0  0  0  0  0  0
    0.0000    0.0000    0.0000 C   0  0  0  0  0  0  0  0  0  0  0  0
    0.0000    0.0000    0.0000 C   0  0  0  0  0  0  0  0  0  0  0  0
    0.0000    0.0000    0.0000 C   0  0  0  0  0  0  0  0  0  0  0  0
    0.0000    0.0000    0.0000 C   0  0  0  0  0  0  0  0  0  0  0  0
    0.0000    0.0000    0.0000 C   0  0  0  0  0  0  0  0  0  0  0  0
    0.0000    0.0000    0.0000 C   0  0  0  0  0  0  0  0  0  0  0  0
    0.0000    0.0000    0.0000 O   0  0  0  0  0  0  0  0  0  0  0  0
    0.0000    0.0000    0.0000 N   0  0  0  0  0  0  0  0  0  0  0  0
    0.0000    0.0000    0.0000 C   0  0  0  0  0  0  0  0  0  0  0  0
    0.0000    0.0000    0.0000 C   0  0  0  0  0  0  0  0  0  0  0  0
    0.0000    0.0000    0.0000 C   0  0  0  0  0  0  0  0  0  0  0  0
    0.0000    0.0000    0.0000 C   0  0  0  0  0  0  0  0  0  0  0  0
    0.0000    0.0000    0.0000 N   0  0  0  0  0  0  0  0  0  0  0  0
    0.0000    0.0000    0.0000 C   0  0  0  0  0  0  0  0  0  0  0  0
    0.0000    0.0000    0.0000 O   0  0  0  0  0  0  0  0  0  0  0  0
    0.0000    0.0000    0.0000 C   0  0  0  0  0  0  0  0  0  0  0  0
    0.0000    0.0000    0.0000 C   0  0  0  0  0  0  0  0  0  0  0  0
    0.0000    0.0000    0.0000 C   0  0  0  0  0  0  0  0  0  0  0  0
    0.0000    0.0000    0.0000 C   0  0  0  0  0  0  0  0  0  0  0  0
    0.0000    0.0000    0.0000 C   0  0  0  0  0  0  0  0  0  0  0  0
    0.0000    0.0000    0.0000 C   0  0  0  0  0  0  0  0  0  0  0  0
    0.0000    0.0000    0.0000 C   0  0  0  0  0  0  0  0  0  0  0  0
    0.0000    0.0000    0.0000 O   0  0  0  0  0  0  0  0  0  0  0  0
    0.0000    0.0000    0.0000 O   0  0  0  0  0  0  0  0  0  0  0  0
    0.0000    0.0000    0.0000 C   0  0  0  0  0  0  0  0  0  0  0  0
    0.0000    0.0000    0.0000 O   0  0  0  0  0  0  0  0  0  0  0  0
    0.0000    0.0000    0.0000 O   0  0  0  0  0  0  0  0  0  0  0  0
    0.0000    0.0000    0.0000 C   0  0  0  0  0  0  0  0  0  0  0  0
    0.0000    0.0000    0.0000 N   0  0  0  0  0  0  0  0  0  0  0  0
    0.0000    0.0000    0.0000 C   0  0  0  0  0  0  0  0  0  0  0  0
    0.0000    0.0000    0.0000 N   0  0  0  0  0  0  0  0  0  0  0  0
  1  2  1  0
  2  3  2  0
  3  4  1  0
  4  5  1  0
  4  6  2  0
  6  7  1  0
  7  8  2  0
  8  9  1  0
  9 10  1  0
 10 11  1  0
 11 12  2  0
 12 13  1  0
 13 14  2  0
 14 15  1  0
 15 16  2  0
 14 17  1  0
 17 18  2  0
 17 19  1  0
 19 20  1  0
 20 21  1  0
 21 22  1  0
 22 23  1  0
 23 24  1  0
 24 25  1  0
 25 26  2  0
 25 27  1  0
 27 28  2  0
 28 29  1  0
 29 30  2  0
 30 31  1  0
 31 32  2  0
 32 33  1  0
 33 34  2  0
 33 35  1  0
 20 36  1  0
 36 37  2  0
 36 38  1  0
  8 39  1  0
 39 40  2  0
 40 41  1  0
 41 42  2  0
 42  2  1  0
 41  6  1  0
 16 11  1  0
 32 27  1  0
M  END
>  <pIC50>  (287) 
8.435

>  <ChEMBL_ID>  (287) 
CHEMBL18155

>  <document_journal>  (287) 
J. Med. Chem.

>  <bao_endpoint>  (287) 
BAO_0000190

>  <potential_duplicate>  (287) 
False

>  <uo_units>  (287) 
UO_0000065

>  <canonical_smiles>  (287) 
Nc1nc(N)c2nc(CNc3ccc(cc3)C(=O)NC(CCCNC(=O)c4ccccc4C(=O)O)C(=O)O)cnc2n1

>  <parent_molecule_chembl_id>  (287) 
CHEMBL18155

>  <assay_type>  (287) 
B

>  <src_id>  (287) 
1

>  <ligand_efficiency>  (287) 
{u'le': u'0.26', u'bei': u'13.8', u'sei': u'3.19', u'lle': u'7.07'}

>  <standard_flag>  (287) 
True

>  <molecule_chembl_id>  (287) 
CHEMBL18155

>  <target_organism>  (287) 
Homo sapiens

>  <standard_units>  (287) 
nM

>  <record_id>  (287) 
120996

>  <document_chembl_id>  (287) 
CHEMBL1127804

>  <bao_format>  (287) 
BAO_0000357

>  <data_validity_description>  (287) 
None

>  <activity_id>  (287) 
1141226

>  <standard_type>  (287) 
IC50

>  <target_chembl_id>  (287) 
CHEMBL202

>  <data_validity_comment>  (287) 
None

>  <published_value>  (287) 
12.2

>  <document_year>  (287) 
1994

>  <target_pref_name>  (287) 
Dihydrofolate reductase

>  <assay_chembl_id>  (287) 
CHEMBL668671

>  <standard_relation>  (287) 
=

>  <assay_description>  (287) 
Tested for inhibitory concentration against human dihydrofolate reductase(DHFR)

>  <published_relation>  (287) 
=

>  <standard_value>  (287) 
12.2

>  <qudt_units>  (287) 
http://www.openphacts.org/units/Nanomolar

>  <target_tax_id>  (287) 
9606

>  <bao_label>  (287) 
single protein format

>  <published_units>  (287) 
nM

>  <pchembl_value>  (287) 
7.91

>  <published_type>  (287) 
IC50

>  <activity_comment>  (287) 
None

$$$$

     RDKit          

 26 28  0  0  0  0  0  0  0  0999 V2000
    0.0000    0.0000    0.0000 C   0  0  0  0  0  0  0  0  0  0  0  0
    0.0000    0.0000    0.0000 C   0  0  0  0  0  0  0  0  0  0  0  0
    0.0000    0.0000    0.0000 O   0  0  0  0  0  0  0  0  0  0  0  0
    0.0000    0.0000    0.0000 C   0  0  0  0  0  0  0  0  0  0  0  0
    0.0000    0.0000    0.0000 C   0  0  0  0  0  0  0  0  0  0  0  0
    0.0000    0.0000    0.0000 C   0  0  0  0  0  0  0  0  0  0  0  0
    0.0000    0.0000    0.0000 C   0  0  0  0  0  0  0  0  0  0  0  0
    0.0000    0.0000    0.0000 C   0  0  0  0  0  0  0  0  0  0  0  0
    0.0000    0.0000    0.0000 C   0  0  0  0  0  0  0  0  0  0  0  0
    0.0000    0.0000    0.0000 N   0  0  0  0  0  0  0  0  0  0  0  0
    0.0000    0.0000    0.0000 C   0  0  0  0  0  0  0  0  0  0  0  0
    0.0000    0.0000    0.0000 N   0  0  0  0  0  0  0  0  0  0  0  0
    0.0000    0.0000    0.0000 N   0  0  0  0  0  0  0  0  0  0  0  0
    0.0000    0.0000    0.0000 C   0  0  0  0  0  0  0  0  0  0  0  0
    0.0000    0.0000    0.0000 N   0  0  0  0  0  0  0  0  0  0  0  0
    0.0000    0.0000    0.0000 C   0  0  0  0  0  0  0  0  0  0  0  0
    0.0000    0.0000    0.0000 C   0  0  0  0  0  0  0  0  0  0  0  0
    0.0000    0.0000    0.0000 O   0  0  0  0  0  0  0  0  0  0  0  0
    0.0000    0.0000    0.0000 C   0  0  0  0  0  0  0  0  0  0  0  0
    0.0000    0.0000    0.0000 C   0  0  0  0  0  0  0  0  0  0  0  0
    0.0000    0.0000    0.0000 C   0  0  0  0  0  0  0  0  0  0  0  0
    0.0000    0.0000    0.0000 N   0  0  0  0  0  0  0  0  0  0  0  0
    0.0000    0.0000    0.0000 C   0  0  0  0  0  0  0  0  0  0  0  0
    0.0000    0.0000    0.0000 C   0  0  0  0  0  0  0  0  0  0  0  0
    0.0000    0.0000    0.0000 C   0  0  0  0  0  0  0  0  0  0  0  0
    0.0000    0.0000    0.0000 C   0  0  0  0  0  0  0  0  0  0  0  0
  1  2  1  0
  2  3  1  0
  3  4  1  0
  4  5  2  0
  5  6  1  0
  6  7  1  0
  7  8  1  0
  8  9  2  0
  9 10  1  0
 10 11  2  0
 11 12  1  0
 11 13  1  0
 13 14  2  0
 14 15  1  0
  6 16  2  0
 16 17  1  0
 17 18  1  0
 18 19  1  0
 19 20  1  0
 17 21  2  0
 21 22  1  0
 22 23  1  0
 23 24  2  0
 24 25  1  0
 25 26  2  0
 21  4  1  0
 14  8  1  0
 26 22  1  0
M  END
>  <pIC50>  (288) 
6.7

>  <ChEMBL_ID>  (288) 
CHEMBL280378

>  <document_journal>  (288) 
J. Med. Chem.

>  <bao_endpoint>  (288) 
BAO_0000190

>  <potential_duplicate>  (288) 
False

>  <uo_units>  (288) 
UO_0000065

>  <canonical_smiles>  (288) 
CCOc1cc(Cc2cnc(N)nc2N)cc(OCC)c1n3cccc3

>  <parent_molecule_chembl_id>  (288) 
CHEMBL280378

>  <assay_type>  (288) 
B

>  <src_id>  (288) 
1

>  <ligand_efficiency>  (288) 
{u'le': u'0.35', u'bei': u'18.95', u'sei': u'6.62', u'lle': u'3.57'}

>  <standard_flag>  (288) 
True

>  <molecule_chembl_id>  (288) 
CHEMBL280378

>  <target_organism>  (288) 
Homo sapiens

>  <standard_units>  (288) 
nM

>  <record_id>  (288) 
148472

>  <document_chembl_id>  (288) 
CHEMBL1149188

>  <bao_format>  (288) 
BAO_0000357

>  <data_validity_description>  (288) 
None

>  <activity_id>  (288) 
1148018

>  <standard_type>  (288) 
IC50

>  <target_chembl_id>  (288) 
CHEMBL202

>  <data_validity_comment>  (288) 
None

>  <published_value>  (288) 
200

>  <document_year>  (288) 
2004

>  <target_pref_name>  (288) 
Dihydrofolate reductase

>  <assay_chembl_id>  (288) 
CHEMBL668428

>  <standard_relation>  (288) 
=

>  <assay_description>  (288) 
Concentration required to inhibit the human Dihydrofolate reductase by 50% was determined

>  <published_relation>  (288) 
=

>  <standard_value>  (288) 
200

>  <qudt_units>  (288) 
http://www.openphacts.org/units/Nanomolar

>  <target_tax_id>  (288) 
9606

>  <bao_label>  (288) 
single protein format

>  <published_units>  (288) 
nM

>  <pchembl_value>  (288) 
6.7

>  <published_type>  (288) 
IC50

>  <activity_comment>  (288) 
None

$$$$

     RDKit          

 32 34  0  0  0  0  0  0  0  0999 V2000
    0.0000    0.0000    0.0000 O   0  0  0  0  0  0  0  0  0  0  0  0
    0.0000    0.0000    0.0000 C   0  0  0  0  0  0  0  0  0  0  0  0
    0.0000    0.0000    0.0000 N   0  0  0  0  0  0  0  0  0  0  0  0
    0.0000    0.0000    0.0000 C   0  0  0  0  0  0  0  0  0  0  0  0
    0.0000    0.0000    0.0000 C   0  0  0  0  0  0  0  0  0  0  0  0
    0.0000    0.0000    0.0000 C   0  0  0  0  0  0  0  0  0  0  0  0
    0.0000    0.0000    0.0000 C   0  0  0  0  0  0  0  0  0  0  0  0
    0.0000    0.0000    0.0000 N   0  0  0  0  0  0  0  0  0  0  0  0
    0.0000    0.0000    0.0000 N   0  0  0  0  0  0  0  0  0  0  0  0
    0.0000    0.0000    0.0000 N   0  0  0  0  0  0  0  0  0  0  0  0
    0.0000    0.0000    0.0000 C   0  0  0  0  0  0  0  0  0  0  0  0
    0.0000    0.0000    0.0000 C   0  0  0  0  0  0  0  0  0  0  0  0
    0.0000    0.0000    0.0000 C   0  0  0  0  0  0  0  0  0  0  0  0
    0.0000    0.0000    0.0000 N   0  0  0  0  0  0  0  0  0  0  0  0
    0.0000    0.0000    0.0000 C   0  0  0  0  0  0  0  0  0  0  0  0
    0.0000    0.0000    0.0000 C   0  0  0  0  0  0  0  0  0  0  0  0
    0.0000    0.0000    0.0000 C   0  0  0  0  0  0  0  0  0  0  0  0
    0.0000    0.0000    0.0000 C   0  0  0  0  0  0  0  0  0  0  0  0
    0.0000    0.0000    0.0000 C   0  0  0  0  0  0  0  0  0  0  0  0
    0.0000    0.0000    0.0000 C   0  0  0  0  0  0  0  0  0  0  0  0
    0.0000    0.0000    0.0000 C   0  0  0  0  0  0  0  0  0  0  0  0
    0.0000    0.0000    0.0000 O   0  0  0  0  0  0  0  0  0  0  0  0
    0.0000    0.0000    0.0000 N   0  0  0  0  0  0  0  0  0  0  0  0
    0.0000    0.0000    0.0000 C   0  0  0  0  0  0  0  0  0  0  0  0
    0.0000    0.0000    0.0000 C   0  0  0  0  0  0  0  0  0  0  0  0
    0.0000    0.0000    0.0000 C   0  0  0  0  0  0  0  0  0  0  0  0
    0.0000    0.0000    0.0000 C   0  0  0  0  0  0  0  0  0  0  0  0
    0.0000    0.0000    0.0000 O   0  0  0  0  0  0  0  0  0  0  0  0
    0.0000    0.0000    0.0000 O   0  0  0  0  0  0  0  0  0  0  0  0
    0.0000    0.0000    0.0000 C   0  0  0  0  0  0  0  0  0  0  0  0
    0.0000    0.0000    0.0000 O   0  0  0  0  0  0  0  0  0  0  0  0
    0.0000    0.0000    0.0000 O   0  0  0  0  0  0  0  0  0  0  0  0
  1  2  2  0
  2  3  1  0
  2  4  1  0
  4  5  2  0
  6  4  1  0
  5  7  1  0
  8  6  2  0
  6  9  1  0
  7 10  1  0
  7 11  2  0
 11  8  1  0
  9 12  2  0
 10 13  1  0
 14 12  1  0
 12  3  1  0
 13 15  1  0
 15 16  2  0
 17 15  1  0
 16 18  1  0
 19 17  2  0
 18 20  2  0
 20 19  1  0
 20 21  1  0
 21 22  2  0
 21 23  1  0
 23 24  1  0
 24 25  1  0
 24 26  1  0
 25 27  1  0
 26 28  2  0
 26 29  1  0
 27 30  1  0
 30 31  2  0
 30 32  1  0
M  END
>  <pIC50>  (289) 
6.68

>  <ChEMBL_ID>  (289) 
CHEMBL157857

>  <document_journal>  (289) 
J. Med. Chem.

>  <bao_endpoint>  (289) 
BAO_0000190

>  <potential_duplicate>  (289) 
False

>  <uo_units>  (289) 
UO_0000065

>  <canonical_smiles>  (289) 
Nc1nc(O)c2cc(NCc3ccc(cc3)C(=O)NC(CCC(=O)O)C(=O)O)cnc2n1

>  <parent_molecule_chembl_id>  (289) 
CHEMBL157857

>  <assay_type>  (289) 
B

>  <src_id>  (289) 
1

>  <ligand_efficiency>  (289) 
{u'le': u'0.29', u'bei': u'15.16', u'sei': u'3.33', u'lle': u'5.91'}

>  <standard_flag>  (289) 
True

>  <molecule_chembl_id>  (289) 
CHEMBL157857

>  <target_organism>  (289) 
Homo sapiens

>  <standard_units>  (289) 
nM

>  <record_id>  (289) 
306013

>  <document_chembl_id>  (289) 
CHEMBL1125239

>  <bao_format>  (289) 
BAO_0000219

>  <data_validity_description>  (289) 
None

>  <activity_id>  (289) 
1157055

>  <standard_type>  (289) 
IC50

>  <target_chembl_id>  (289) 
CHEMBL202

>  <data_validity_comment>  (289) 
None

>  <published_value>  (289) 
0.21

>  <document_year>  (289) 
1991

>  <target_pref_name>  (289) 
Dihydrofolate reductase

>  <assay_chembl_id>  (289) 
CHEMBL879985

>  <standard_relation>  (289) 
=

>  <assay_description>  (289) 
Inhibition of dihydrofolate reductase (DHFR) in WIL2 cells

>  <published_relation>  (289) 
=

>  <standard_value>  (289) 
210

>  <qudt_units>  (289) 
http://www.openphacts.org/units/Nanomolar

>  <target_tax_id>  (289) 
9606

>  <bao_label>  (289) 
cell-based format

>  <published_units>  (289) 
uM

>  <pchembl_value>  (289) 
6.68

>  <published_type>  (289) 
I50

>  <activity_comment>  (289) 
None

$$$$

     RDKit          

 33 35  0  0  0  0  0  0  0  0999 V2000
    0.0000    0.0000    0.0000 O   0  0  0  0  0  0  0  0  0  0  0  0
    0.0000    0.0000    0.0000 C   0  0  0  0  0  0  0  0  0  0  0  0
    0.0000    0.0000    0.0000 N   0  0  0  0  0  0  0  0  0  0  0  0
    0.0000    0.0000    0.0000 C   0  0  0  0  0  0  0  0  0  0  0  0
    0.0000    0.0000    0.0000 C   0  0  0  0  0  0  0  0  0  0  0  0
    0.0000    0.0000    0.0000 C   0  0  0  0  0  0  0  0  0  0  0  0
    0.0000    0.0000    0.0000 C   0  0  0  0  0  0  0  0  0  0  0  0
    0.0000    0.0000    0.0000 N   0  0  0  0  0  0  0  0  0  0  0  0
    0.0000    0.0000    0.0000 N   0  0  0  0  0  0  0  0  0  0  0  0
    0.0000    0.0000    0.0000 N   0  0  0  0  0  0  0  0  0  0  0  0
    0.0000    0.0000    0.0000 C   0  0  0  0  0  0  0  0  0  0  0  0
    0.0000    0.0000    0.0000 C   0  0  0  0  0  0  0  0  0  0  0  0
    0.0000    0.0000    0.0000 C   0  0  0  0  0  0  0  0  0  0  0  0
    0.0000    0.0000    0.0000 C   0  0  0  0  0  0  0  0  0  0  0  0
    0.0000    0.0000    0.0000 N   0  0  0  0  0  0  0  0  0  0  0  0
    0.0000    0.0000    0.0000 C   0  0  0  0  0  0  0  0  0  0  0  0
    0.0000    0.0000    0.0000 C   0  0  0  0  0  0  0  0  0  0  0  0
    0.0000    0.0000    0.0000 C   0  0  0  0  0  0  0  0  0  0  0  0
    0.0000    0.0000    0.0000 C   0  0  0  0  0  0  0  0  0  0  0  0
    0.0000    0.0000    0.0000 C   0  0  0  0  0  0  0  0  0  0  0  0
    0.0000    0.0000    0.0000 C   0  0  0  0  0  0  0  0  0  0  0  0
    0.0000    0.0000    0.0000 C   0  0  0  0  0  0  0  0  0  0  0  0
    0.0000    0.0000    0.0000 O   0  0  0  0  0  0  0  0  0  0  0  0
    0.0000    0.0000    0.0000 N   0  0  0  0  0  0  0  0  0  0  0  0
    0.0000    0.0000    0.0000 C   0  0  0  0  0  0  0  0  0  0  0  0
    0.0000    0.0000    0.0000 C   0  0  0  0  0  0  0  0  0  0  0  0
    0.0000    0.0000    0.0000 C   0  0  0  0  0  0  0  0  0  0  0  0
    0.0000    0.0000    0.0000 C   0  0  0  0  0  0  0  0  0  0  0  0
    0.0000    0.0000    0.0000 O   0  0  0  0  0  0  0  0  0  0  0  0
    0.0000    0.0000    0.0000 O   0  0  0  0  0  0  0  0  0  0  0  0
    0.0000    0.0000    0.0000 C   0  0  0  0  0  0  0  0  0  0  0  0
    0.0000    0.0000    0.0000 O   0  0  0  0  0  0  0  0  0  0  0  0
    0.0000    0.0000    0.0000 O   0  0  0  0  0  0  0  0  0  0  0  0
  1  2  2  0
  2  3  1  0
  2  4  1  0
  4  5  2  0
  4  6  1  0
  5  7  1  0
  8  6  2  0
  6  9  1  0
 10  7  1  0
  7 11  2  0
 11  8  1  0
  9 12  2  0
 13 10  1  0
 10 14  1  0
 12 15  1  0
 12  3  1  0
 14 16  1  0
 16 17  2  0
 18 16  1  0
 17 19  1  0
 20 18  2  0
 19 21  2  0
 21 20  1  0
 21 22  1  0
 22 23  2  0
 22 24  1  0
 24 25  1  0
 25 26  1  0
 25 27  1  0
 26 28  1  0
 27 29  2  0
 27 30  1  0
 28 31  1  0
 31 32  2  0
 31 33  1  0
M  END
>  <pIC50>  (290) 
6.6

>  <ChEMBL_ID>  (290) 
CHEMBL156551

>  <document_journal>  (290) 
J. Med. Chem.

>  <bao_endpoint>  (290) 
BAO_0000190

>  <potential_duplicate>  (290) 
False

>  <uo_units>  (290) 
UO_0000065

>  <canonical_smiles>  (290) 
CN(Cc1ccc(cc1)C(=O)NC(CCC(=O)O)C(=O)O)c2cnc3nc(N)nc(O)c3c2

>  <parent_molecule_chembl_id>  (290) 
CHEMBL156551

>  <assay_type>  (290) 
B

>  <src_id>  (290) 
1

>  <ligand_efficiency>  (290) 
{u'le': u'0.27', u'bei': u'14.53', u'sei': u'3.44', u'lle': u'5.47'}

>  <standard_flag>  (290) 
True

>  <molecule_chembl_id>  (290) 
CHEMBL156551

>  <target_organism>  (290) 
Homo sapiens

>  <standard_units>  (290) 
nM

>  <record_id>  (290) 
306015

>  <document_chembl_id>  (290) 
CHEMBL1125239

>  <bao_format>  (290) 
BAO_0000219

>  <data_validity_description>  (290) 
None

>  <activity_id>  (290) 
1158198

>  <standard_type>  (290) 
IC50

>  <target_chembl_id>  (290) 
CHEMBL202

>  <data_validity_comment>  (290) 
None

>  <published_value>  (290) 
0.25

>  <document_year>  (290) 
1991

>  <target_pref_name>  (290) 
Dihydrofolate reductase

>  <assay_chembl_id>  (290) 
CHEMBL879985

>  <standard_relation>  (290) 
=

>  <assay_description>  (290) 
Inhibition of dihydrofolate reductase (DHFR) in WIL2 cells

>  <published_relation>  (290) 
=

>  <standard_value>  (290) 
250

>  <qudt_units>  (290) 
http://www.openphacts.org/units/Nanomolar

>  <target_tax_id>  (290) 
9606

>  <bao_label>  (290) 
cell-based format

>  <published_units>  (290) 
uM

>  <pchembl_value>  (290) 
6.6

>  <published_type>  (290) 
I50

>  <activity_comment>  (290) 
None

$$$$

     RDKit          

 34 36  0  0  0  0  0  0  0  0999 V2000
    0.0000    0.0000    0.0000 O   0  0  0  0  0  0  0  0  0  0  0  0
    0.0000    0.0000    0.0000 C   0  0  0  0  0  0  0  0  0  0  0  0
    0.0000    0.0000    0.0000 N   0  0  0  0  0  0  0  0  0  0  0  0
    0.0000    0.0000    0.0000 C   0  0  0  0  0  0  0  0  0  0  0  0
    0.0000    0.0000    0.0000 C   0  0  0  0  0  0  0  0  0  0  0  0
    0.0000    0.0000    0.0000 C   0  0  0  0  0  0  0  0  0  0  0  0
    0.0000    0.0000    0.0000 C   0  0  0  0  0  0  0  0  0  0  0  0
    0.0000    0.0000    0.0000 N   0  0  0  0  0  0  0  0  0  0  0  0
    0.0000    0.0000    0.0000 N   0  0  0  0  0  0  0  0  0  0  0  0
    0.0000    0.0000    0.0000 C   0  0  0  0  0  0  0  0  0  0  0  0
    0.0000    0.0000    0.0000 N   0  0  0  0  0  0  0  0  0  0  0  0
    0.0000    0.0000    0.0000 C   0  0  0  0  0  0  0  0  0  0  0  0
    0.0000    0.0000    0.0000 C   0  0  0  0  0  0  0  0  0  0  0  0
    0.0000    0.0000    0.0000 C   0  0  0  0  0  0  0  0  0  0  0  0
    0.0000    0.0000    0.0000 N   0  0  0  0  0  0  0  0  0  0  0  0
    0.0000    0.0000    0.0000 C   0  0  0  0  0  0  0  0  0  0  0  0
    0.0000    0.0000    0.0000 O   0  0  0  0  0  0  0  0  0  0  0  0
    0.0000    0.0000    0.0000 C   0  0  0  0  0  0  0  0  0  0  0  0
    0.0000    0.0000    0.0000 C   0  0  0  0  0  0  0  0  0  0  0  0
    0.0000    0.0000    0.0000 C   0  0  0  0  0  0  0  0  0  0  0  0
    0.0000    0.0000    0.0000 C   0  0  0  0  0  0  0  0  0  0  0  0
    0.0000    0.0000    0.0000 C   0  0  0  0  0  0  0  0  0  0  0  0
    0.0000    0.0000    0.0000 C   0  0  0  0  0  0  0  0  0  0  0  0
    0.0000    0.0000    0.0000 O   0  0  0  0  0  0  0  0  0  0  0  0
    0.0000    0.0000    0.0000 N   0  0  0  0  0  0  0  0  0  0  0  0
    0.0000    0.0000    0.0000 C   0  0  0  0  0  0  0  0  0  0  0  0
    0.0000    0.0000    0.0000 C   0  0  0  0  0  0  0  0  0  0  0  0
    0.0000    0.0000    0.0000 C   0  0  0  0  0  0  0  0  0  0  0  0
    0.0000    0.0000    0.0000 C   0  0  0  0  0  0  0  0  0  0  0  0
    0.0000    0.0000    0.0000 O   0  0  0  0  0  0  0  0  0  0  0  0
    0.0000    0.0000    0.0000 O   0  0  0  0  0  0  0  0  0  0  0  0
    0.0000    0.0000    0.0000 C   0  0  0  0  0  0  0  0  0  0  0  0
    0.0000    0.0000    0.0000 O   0  0  0  0  0  0  0  0  0  0  0  0
    0.0000    0.0000    0.0000 O   0  0  0  0  0  0  0  0  0  0  0  0
  1  2  2  0
  2  3  1  0
  2  4  1  0
  4  5  2  0
  6  4  1  0
  5  7  1  0
  8  6  2  0
  6  9  1  0
  7 10  2  0
  7 11  1  0
 10  8  1  0
  9 12  2  0
 11 13  1  0
 11 14  1  0
 15 12  1  0
 12  3  1  0
 13 16  1  0
 14 17  2  0
 16 18  2  0
 19 16  1  0
 18 20  1  0
 21 19  2  0
 20 22  2  0
 22 21  1  0
 22 23  1  0
 23 24  2  0
 23 25  1  0
 25 26  1  0
 26 27  1  0
 26 28  1  0
 27 29  1  0
 28 30  2  0
 28 31  1  0
 29 32  1  0
 32 33  2  0
 32 34  1  0
M  END
>  <pIC50>  (291) 
5.71

>  <ChEMBL_ID>  (291) 
CHEMBL157775

>  <document_journal>  (291) 
J. Med. Chem.

>  <bao_endpoint>  (291) 
BAO_0000190

>  <potential_duplicate>  (291) 
False

>  <uo_units>  (291) 
UO_0000065

>  <canonical_smiles>  (291) 
Nc1nc(O)c2cc(cnc2n1)N(Cc3ccc(cc3)C(=O)NC(CCC(=O)O)C(=O)O)C=O

>  <parent_molecule_chembl_id>  (291) 
CHEMBL157775

>  <assay_type>  (291) 
B

>  <src_id>  (291) 
1

>  <ligand_efficiency>  (291) 
{u'le': u'0.23', u'bei': u'12.19', u'sei': u'2.73', u'lle': u'5.5'}

>  <standard_flag>  (291) 
True

>  <molecule_chembl_id>  (291) 
CHEMBL157775

>  <target_organism>  (291) 
Homo sapiens

>  <standard_units>  (291) 
nM

>  <record_id>  (291) 
306014

>  <document_chembl_id>  (291) 
CHEMBL1125239

>  <bao_format>  (291) 
BAO_0000219

>  <data_validity_description>  (291) 
None

>  <activity_id>  (291) 
1162380

>  <standard_type>  (291) 
IC50

>  <target_chembl_id>  (291) 
CHEMBL202

>  <data_validity_comment>  (291) 
None

>  <published_value>  (291) 
1.95

>  <document_year>  (291) 
1991

>  <target_pref_name>  (291) 
Dihydrofolate reductase

>  <assay_chembl_id>  (291) 
CHEMBL879985

>  <standard_relation>  (291) 
=

>  <assay_description>  (291) 
Inhibition of dihydrofolate reductase (DHFR) in WIL2 cells

>  <published_relation>  (291) 
=

>  <standard_value>  (291) 
1950

>  <qudt_units>  (291) 
http://www.openphacts.org/units/Nanomolar

>  <target_tax_id>  (291) 
9606

>  <bao_label>  (291) 
cell-based format

>  <published_units>  (291) 
uM

>  <pchembl_value>  (291) 
5.71

>  <published_type>  (291) 
I50

>  <activity_comment>  (291) 
None

$$$$

     RDKit          

 32 34  0  0  0  0  0  0  0  0999 V2000
    0.0000    0.0000    0.0000 N   0  0  0  0  0  0  0  0  0  0  0  0
    0.0000    0.0000    0.0000 C   0  0  0  0  0  0  0  0  0  0  0  0
    0.0000    0.0000    0.0000 N   0  0  0  0  0  0  0  0  0  0  0  0
    0.0000    0.0000    0.0000 C   0  0  0  0  0  0  0  0  0  0  0  0
    0.0000    0.0000    0.0000 N   0  0  0  0  0  0  0  0  0  0  0  0
    0.0000    0.0000    0.0000 C   0  0  0  0  0  0  0  0  0  0  0  0
    0.0000    0.0000    0.0000 N   0  0  0  0  0  0  0  0  0  0  0  0
    0.0000    0.0000    0.0000 C   0  0  0  0  0  0  0  0  0  0  0  0
    0.0000    0.0000    0.0000 C   0  0  0  0  0  0  0  0  0  0  0  0
    0.0000    0.0000    0.0000 O   0  0  0  0  0  0  0  0  0  0  0  0
    0.0000    0.0000    0.0000 C   0  0  0  0  0  0  0  0  0  0  0  0
    0.0000    0.0000    0.0000 C   0  0  0  0  0  0  0  0  0  0  0  0
    0.0000    0.0000    0.0000 C   0  0  0  0  0  0  0  0  0  0  0  0
    0.0000    0.0000    0.0000 C   0  0  0  0  0  0  0  0  0  0  0  0
    0.0000    0.0000    0.0000 C   0  0  0  0  0  0  0  0  0  0  0  0
    0.0000    0.0000    0.0000 C   0  0  0  0  0  0  0  0  0  0  0  0
    0.0000    0.0000    0.0000 C   0  0  0  0  0  0  0  0  0  0  0  0
    0.0000    0.0000    0.0000 O   0  0  0  0  0  0  0  0  0  0  0  0
    0.0000    0.0000    0.0000 N   0  0  0  0  0  0  0  0  0  0  0  0
    0.0000    0.0000    0.0000 C   0  0  0  0  0  0  0  0  0  0  0  0
    0.0000    0.0000    0.0000 C   0  0  0  0  0  0  0  0  0  0  0  0
    0.0000    0.0000    0.0000 C   0  0  0  0  0  0  0  0  0  0  0  0
    0.0000    0.0000    0.0000 C   0  0  0  0  0  0  0  0  0  0  0  0
    0.0000    0.0000    0.0000 O   0  0  0  0  0  0  0  0  0  0  0  0
    0.0000    0.0000    0.0000 O   0  0  0  0  0  0  0  0  0  0  0  0
    0.0000    0.0000    0.0000 C   0  0  0  0  0  0  0  0  0  0  0  0
    0.0000    0.0000    0.0000 O   0  0  0  0  0  0  0  0  0  0  0  0
    0.0000    0.0000    0.0000 O   0  0  0  0  0  0  0  0  0  0  0  0
    0.0000    0.0000    0.0000 C   0  0  0  0  0  0  0  0  0  0  0  0
    0.0000    0.0000    0.0000 N   0  0  0  0  0  0  0  0  0  0  0  0
    0.0000    0.0000    0.0000 C   0  0  0  0  0  0  0  0  0  0  0  0
    0.0000    0.0000    0.0000 N   0  0  0  0  0  0  0  0  0  0  0  0
  1  2  1  0
  2  3  2  0
  3  4  1  0
  4  5  1  0
  4  6  2  0
  6  7  1  0
  7  8  2  0
  8  9  1  0
  9 10  1  0
 10 11  1  0
 11 12  2  0
 12 13  1  0
 13 14  2  0
 14 15  1  0
 15 16  2  0
 14 17  1  0
 17 18  2  0
 17 19  1  0
 19 20  1  0
 20 21  1  0
 21 22  1  0
 22 23  1  0
 23 24  2  0
 23 25  1  0
 20 26  1  0
 26 27  2  0
 26 28  1  0
  8 29  1  0
 29 30  2  0
 30 31  1  0
 31 32  2  0
 32  2  1  0
 31  6  1  0
 16 11  1  0
M  END
>  <pIC50>  (292) 
6.13

>  <ChEMBL_ID>  (292) 
CHEMBL10804

>  <document_journal>  (292) 
J. Med. Chem.

>  <bao_endpoint>  (292) 
BAO_0000190

>  <potential_duplicate>  (292) 
False

>  <uo_units>  (292) 
UO_0000065

>  <canonical_smiles>  (292) 
Nc1nc(N)c2nc(COc3ccc(cc3)C(=O)NC(CCC(=O)O)C(=O)O)cnc2n1

>  <parent_molecule_chembl_id>  (292) 
CHEMBL10804

>  <assay_type>  (292) 
B

>  <src_id>  (292) 
1

>  <ligand_efficiency>  (292) 
{u'le': u'0.26', u'bei': u'13.89', u'sei': u'2.83', u'lle': u'6.19'}

>  <standard_flag>  (292) 
True

>  <molecule_chembl_id>  (292) 
CHEMBL10804

>  <target_organism>  (292) 
Homo sapiens

>  <standard_units>  (292) 
nM

>  <record_id>  (292) 
338869

>  <document_chembl_id>  (292) 
CHEMBL1121493

>  <bao_format>  (292) 
BAO_0000357

>  <data_validity_description>  (292) 
None

>  <activity_id>  (292) 
1199406

>  <standard_type>  (292) 
IC50

>  <target_chembl_id>  (292) 
CHEMBL202

>  <data_validity_comment>  (292) 
None

>  <published_value>  (292) 
7.4E-7

>  <document_year>  (292) 
1980

>  <target_pref_name>  (292) 
Dihydrofolate reductase

>  <assay_chembl_id>  (292) 
CHEMBL669274

>  <standard_relation>  (292) 
=

>  <assay_description>  (292) 
Ability to inhibit human HeLa cell dihydrofolate reductase in vitro was determined

>  <published_relation>  (292) 
=

>  <standard_value>  (292) 
740

>  <qudt_units>  (292) 
http://www.openphacts.org/units/Nanomolar

>  <target_tax_id>  (292) 
9606

>  <bao_label>  (292) 
single protein format

>  <published_units>  (292) 
M

>  <pchembl_value>  (292) 
6.13

>  <published_type>  (292) 
I50

>  <activity_comment>  (292) 
None

$$$$

     RDKit          

 33 35  0  0  0  0  0  0  0  0999 V2000
    0.0000    0.0000    0.0000 N   0  0  0  0  0  0  0  0  0  0  0  0
    0.0000    0.0000    0.0000 C   0  0  0  0  0  0  0  0  0  0  0  0
    0.0000    0.0000    0.0000 N   0  0  0  0  0  0  0  0  0  0  0  0
    0.0000    0.0000    0.0000 C   0  0  0  0  0  0  0  0  0  0  0  0
    0.0000    0.0000    0.0000 N   0  0  0  0  0  0  0  0  0  0  0  0
    0.0000    0.0000    0.0000 C   0  0  0  0  0  0  0  0  0  0  0  0
    0.0000    0.0000    0.0000 N   0  0  0  0  0  0  0  0  0  0  0  0
    0.0000    0.0000    0.0000 C   0  0  0  0  0  0  0  0  0  0  0  0
    0.0000    0.0000    0.0000 C   0  0  0  0  0  0  0  0  0  0  0  0
    0.0000    0.0000    0.0000 C   0  0  0  0  0  0  0  0  0  0  0  0
    0.0000    0.0000    0.0000 S   0  0  0  0  0  0  0  0  0  0  0  0
    0.0000    0.0000    0.0000 C   0  0  0  0  0  0  0  0  0  0  0  0
    0.0000    0.0000    0.0000 C   0  0  0  0  0  0  0  0  0  0  0  0
    0.0000    0.0000    0.0000 C   0  0  0  0  0  0  0  0  0  0  0  0
    0.0000    0.0000    0.0000 C   0  0  0  0  0  0  0  0  0  0  0  0
    0.0000    0.0000    0.0000 C   0  0  0  0  0  0  0  0  0  0  0  0
    0.0000    0.0000    0.0000 C   0  0  0  0  0  0  0  0  0  0  0  0
    0.0000    0.0000    0.0000 C   0  0  0  0  0  0  0  0  0  0  0  0
    0.0000    0.0000    0.0000 O   0  0  0  0  0  0  0  0  0  0  0  0
    0.0000    0.0000    0.0000 N   0  0  0  0  0  0  0  0  0  0  0  0
    0.0000    0.0000    0.0000 C   0  0  0  0  0  0  0  0  0  0  0  0
    0.0000    0.0000    0.0000 C   0  0  0  0  0  0  0  0  0  0  0  0
    0.0000    0.0000    0.0000 C   0  0  0  0  0  0  0  0  0  0  0  0
    0.0000    0.0000    0.0000 C   0  0  0  0  0  0  0  0  0  0  0  0
    0.0000    0.0000    0.0000 O   0  0  0  0  0  0  0  0  0  0  0  0
    0.0000    0.0000    0.0000 O   0  0  0  0  0  0  0  0  0  0  0  0
    0.0000    0.0000    0.0000 C   0  0  0  0  0  0  0  0  0  0  0  0
    0.0000    0.0000    0.0000 O   0  0  0  0  0  0  0  0  0  0  0  0
    0.0000    0.0000    0.0000 O   0  0  0  0  0  0  0  0  0  0  0  0
    0.0000    0.0000    0.0000 C   0  0  0  0  0  0  0  0  0  0  0  0
    0.0000    0.0000    0.0000 N   0  0  0  0  0  0  0  0  0  0  0  0
    0.0000    0.0000    0.0000 C   0  0  0  0  0  0  0  0  0  0  0  0
    0.0000    0.0000    0.0000 N   0  0  0  0  0  0  0  0  0  0  0  0
  1  2  1  0
  2  3  2  0
  3  4  1  0
  4  5  1  0
  4  6  2  0
  6  7  1  0
  7  8  2  0
  8  9  1  0
  9 10  1  0
 10 11  1  0
 11 12  1  0
 12 13  2  0
 13 14  1  0
 14 15  2  0
 15 16  1  0
 16 17  2  0
 15 18  1  0
 18 19  2  0
 18 20  1  0
 20 21  1  0
 21 22  1  0
 22 23  1  0
 23 24  1  0
 24 25  2  0
 24 26  1  0
 21 27  1  0
 27 28  2  0
 27 29  1  0
  8 30  1  0
 30 31  2  0
 31 32  1  0
 32 33  2  0
 33  2  1  0
 32  6  1  0
 17 12  1  0
M  END
>  <pIC50>  (293) 
4.6

>  <ChEMBL_ID>  (293) 
CHEMBL10592

>  <document_journal>  (293) 
J. Med. Chem.

>  <bao_endpoint>  (293) 
BAO_0000190

>  <potential_duplicate>  (293) 
False

>  <uo_units>  (293) 
UO_0000065

>  <canonical_smiles>  (293) 
Nc1nc(N)c2nc(CCSc3ccc(cc3)C(=O)NC(CCC(=O)O)C(=O)O)cnc2n1

>  <parent_molecule_chembl_id>  (293) 
CHEMBL10592

>  <assay_type>  (293) 
B

>  <src_id>  (293) 
1

>  <ligand_efficiency>  (293) 
{u'le': u'0.19', u'bei': u'9.76', u'sei': u'1.98', u'lle': u'3.86'}

>  <standard_flag>  (293) 
True

>  <molecule_chembl_id>  (293) 
CHEMBL10592

>  <target_organism>  (293) 
Homo sapiens

>  <standard_units>  (293) 
nM

>  <record_id>  (293) 
338866

>  <document_chembl_id>  (293) 
CHEMBL1121493

>  <bao_format>  (293) 
BAO_0000357

>  <data_validity_description>  (293) 
None

>  <activity_id>  (293) 
1200772

>  <standard_type>  (293) 
IC50

>  <target_chembl_id>  (293) 
CHEMBL202

>  <data_validity_comment>  (293) 
None

>  <published_value>  (293) 
0.000025

>  <document_year>  (293) 
1980

>  <target_pref_name>  (293) 
Dihydrofolate reductase

>  <assay_chembl_id>  (293) 
CHEMBL669273

>  <standard_relation>  (293) 
=

>  <assay_description>  (293) 
Ability to inhibit human HeLa cell dihydrofolate reductase in vitro was determined

>  <published_relation>  (293) 
=

>  <standard_value>  (293) 
25000

>  <qudt_units>  (293) 
http://www.openphacts.org/units/Nanomolar

>  <target_tax_id>  (293) 
9606

>  <bao_label>  (293) 
single protein format

>  <published_units>  (293) 
M

>  <pchembl_value>  (293) 
4.6

>  <published_type>  (293) 
I50

>  <activity_comment>  (293) 
None

$$$$

     RDKit          

 32 34  0  0  0  0  0  0  0  0999 V2000
    0.0000    0.0000    0.0000 N   0  0  0  0  0  0  0  0  0  0  0  0
    0.0000    0.0000    0.0000 C   0  0  0  0  0  0  0  0  0  0  0  0
    0.0000    0.0000    0.0000 N   0  0  0  0  0  0  0  0  0  0  0  0
    0.0000    0.0000    0.0000 C   0  0  0  0  0  0  0  0  0  0  0  0
    0.0000    0.0000    0.0000 N   0  0  0  0  0  0  0  0  0  0  0  0
    0.0000    0.0000    0.0000 C   0  0  0  0  0  0  0  0  0  0  0  0
    0.0000    0.0000    0.0000 N   0  0  0  0  0  0  0  0  0  0  0  0
    0.0000    0.0000    0.0000 C   0  0  0  0  0  0  0  0  0  0  0  0
    0.0000    0.0000    0.0000 C   0  0  0  0  0  0  0  0  0  0  0  0
    0.0000    0.0000    0.0000 S   0  0  0  0  0  0  0  0  0  0  0  0
    0.0000    0.0000    0.0000 C   0  0  0  0  0  0  0  0  0  0  0  0
    0.0000    0.0000    0.0000 C   0  0  0  0  0  0  0  0  0  0  0  0
    0.0000    0.0000    0.0000 C   0  0  0  0  0  0  0  0  0  0  0  0
    0.0000    0.0000    0.0000 C   0  0  0  0  0  0  0  0  0  0  0  0
    0.0000    0.0000    0.0000 C   0  0  0  0  0  0  0  0  0  0  0  0
    0.0000    0.0000    0.0000 C   0  0  0  0  0  0  0  0  0  0  0  0
    0.0000    0.0000    0.0000 C   0  0  0  0  0  0  0  0  0  0  0  0
    0.0000    0.0000    0.0000 O   0  0  0  0  0  0  0  0  0  0  0  0
    0.0000    0.0000    0.0000 N   0  0  0  0  0  0  0  0  0  0  0  0
    0.0000    0.0000    0.0000 C   0  0  0  0  0  0  0  0  0  0  0  0
    0.0000    0.0000    0.0000 C   0  0  0  0  0  0  0  0  0  0  0  0
    0.0000    0.0000    0.0000 C   0  0  0  0  0  0  0  0  0  0  0  0
    0.0000    0.0000    0.0000 C   0  0  0  0  0  0  0  0  0  0  0  0
    0.0000    0.0000    0.0000 O   0  0  0  0  0  0  0  0  0  0  0  0
    0.0000    0.0000    0.0000 O   0  0  0  0  0  0  0  0  0  0  0  0
    0.0000    0.0000    0.0000 C   0  0  0  0  0  0  0  0  0  0  0  0
    0.0000    0.0000    0.0000 O   0  0  0  0  0  0  0  0  0  0  0  0
    0.0000    0.0000    0.0000 O   0  0  0  0  0  0  0  0  0  0  0  0
    0.0000    0.0000    0.0000 C   0  0  0  0  0  0  0  0  0  0  0  0
    0.0000    0.0000    0.0000 N   0  0  0  0  0  0  0  0  0  0  0  0
    0.0000    0.0000    0.0000 C   0  0  0  0  0  0  0  0  0  0  0  0
    0.0000    0.0000    0.0000 N   0  0  0  0  0  0  0  0  0  0  0  0
  1  2  1  0
  2  3  2  0
  3  4  1  0
  4  5  1  0
  4  6  2  0
  6  7  1  0
  7  8  2  0
  8  9  1  0
  9 10  1  0
 10 11  1  0
 11 12  2  0
 12 13  1  0
 13 14  2  0
 14 15  1  0
 15 16  2  0
 14 17  1  0
 17 18  2  0
 17 19  1  0
 19 20  1  0
 20 21  1  0
 21 22  1  0
 22 23  1  0
 23 24  2  0
 23 25  1  0
 20 26  1  0
 26 27  2  0
 26 28  1  0
  8 29  1  0
 29 30  2  0
 30 31  1  0
 31 32  2  0
 32  2  1  0
 31  6  1  0
 16 11  1  0
M  END
>  <pIC50>  (294) 
5.57

>  <ChEMBL_ID>  (294) 
CHEMBL10591

>  <document_journal>  (294) 
J. Med. Chem.

>  <bao_endpoint>  (294) 
BAO_0000190

>  <potential_duplicate>  (294) 
False

>  <uo_units>  (294) 
UO_0000065

>  <canonical_smiles>  (294) 
Nc1nc(N)c2nc(CSc3ccc(cc3)C(=O)NC(CCC(=O)O)C(=O)O)cnc2n1

>  <parent_molecule_chembl_id>  (294) 
CHEMBL10591

>  <assay_type>  (294) 
B

>  <src_id>  (294) 
1

>  <ligand_efficiency>  (294) 
{u'le': u'0.24', u'bei': u'12.17', u'sei': u'2.39', u'lle': u'5.08'}

>  <standard_flag>  (294) 
True

>  <molecule_chembl_id>  (294) 
CHEMBL10591

>  <target_organism>  (294) 
Homo sapiens

>  <standard_units>  (294) 
nM

>  <record_id>  (294) 
338865

>  <document_chembl_id>  (294) 
CHEMBL1121493

>  <bao_format>  (294) 
BAO_0000357

>  <data_validity_description>  (294) 
None

>  <activity_id>  (294) 
1207506

>  <standard_type>  (294) 
IC50

>  <target_chembl_id>  (294) 
CHEMBL202

>  <data_validity_comment>  (294) 
None

>  <published_value>  (294) 
0.0000027

>  <document_year>  (294) 
1980

>  <target_pref_name>  (294) 
Dihydrofolate reductase

>  <assay_chembl_id>  (294) 
CHEMBL669276

>  <standard_relation>  (294) 
=

>  <assay_description>  (294) 
Ability to inhibit human HeLa cell dihydrofolate reductase in vitro was determined

>  <published_relation>  (294) 
=

>  <standard_value>  (294) 
2700

>  <qudt_units>  (294) 
http://www.openphacts.org/units/Nanomolar

>  <target_tax_id>  (294) 
9606

>  <bao_label>  (294) 
single protein format

>  <published_units>  (294) 
M

>  <pchembl_value>  (294) 
5.57

>  <published_type>  (294) 
I50

>  <activity_comment>  (294) 
None

$$$$

     RDKit          

 29 31  0  0  0  0  0  0  0  0999 V2000
    0.0000    0.0000    0.0000 O   0  0  0  0  0  0  0  0  0  0  0  0
    0.0000    0.0000    0.0000 C   0  0  0  0  0  0  0  0  0  0  0  0
    0.0000    0.0000    0.0000 N   0  0  0  0  0  0  0  0  0  0  0  0
    0.0000    0.0000    0.0000 C   0  0  0  0  0  0  0  0  0  0  0  0
    0.0000    0.0000    0.0000 C   0  0  0  0  0  0  0  0  0  0  0  0
    0.0000    0.0000    0.0000 C   0  0  0  0  0  0  0  0  0  0  0  0
    0.0000    0.0000    0.0000 C   0  0  0  0  0  0  0  0  0  0  0  0
    0.0000    0.0000    0.0000 C   0  0  0  0  0  0  0  0  0  0  0  0
    0.0000    0.0000    0.0000 N   0  0  0  0  0  0  0  0  0  0  0  0
    0.0000    0.0000    0.0000 C   0  0  0  0  0  0  0  0  0  0  0  0
    0.0000    0.0000    0.0000 C   0  0  0  0  0  0  0  0  0  0  0  0
    0.0000    0.0000    0.0000 C   0  0  0  0  0  0  0  0  0  0  0  0
    0.0000    0.0000    0.0000 N   0  0  0  0  0  0  0  0  0  0  0  0
    0.0000    0.0000    0.0000 N   0  0  0  0  0  0  0  0  0  0  0  0
    0.0000    0.0000    0.0000 C   0  0  0  0  0  0  0  0  0  0  0  0
    0.0000    0.0000    0.0000 C   0  0  0  0  0  0  0  0  0  0  0  0
    0.0000    0.0000    0.0000 C   0  0  0  0  0  0  0  0  0  0  0  0
    0.0000    0.0000    0.0000 C   0  0  0  0  0  0  0  0  0  0  0  0
    0.0000    0.0000    0.0000 C   0  0  0  0  0  0  0  0  0  0  0  0
    0.0000    0.0000    0.0000 C   0  0  0  0  0  0  0  0  0  0  0  0
    0.0000    0.0000    0.0000 C   0  0  0  0  0  0  0  0  0  0  0  0
    0.0000    0.0000    0.0000 C   0  0  0  0  0  0  0  0  0  0  0  0
    0.0000    0.0000    0.0000 C   0  0  0  0  0  0  0  0  0  0  0  0
    0.0000    0.0000    0.0000 S   0  0  0  0  0  0  0  0  0  0  0  0
    0.0000    0.0000    0.0000 N   0  0  0  0  0  0  0  0  0  0  0  0
    0.0000    0.0000    0.0000 O   0  0  0  0  0  0  0  0  0  0  0  0
    0.0000    0.0000    0.0000 O   0  0  0  0  0  0  0  0  0  0  0  0
    0.0000    0.0000    0.0000 C   0  0  0  0  0  0  0  0  0  0  0  0
    0.0000    0.0000    0.0000 C   0  0  0  0  0  0  0  0  0  0  0  0
  1  2  2  0
  2  3  1  0
  2  4  1  0
  4  5  2  0
  4  6  1  0
  5  7  1  0
  8  6  2  0
  6  9  1  0
 10  7  1  0
  7 11  2  0
 11  8  1  0
  9 12  2  0
 13 10  1  0
 12 14  1  0
 12  3  1  0
 15 13  1  0
 13 16  1  0
 17 15  2  0
 15 18  1  0
 16 19  1  0
 20 17  1  0
 18 21  2  0
 19 22  3  0
 23 20  2  0
 21 23  1  0
 24 23  1  0
 25 24  1  0
 24 26  2  0
 24 27  2  0
 28 25  1  0
 25 29  1  0
M  END
>  <pIC50>  (295) 
4.69

>  <ChEMBL_ID>  (295) 
CHEMBL302669

>  <document_journal>  (295) 
J. Med. Chem.

>  <bao_endpoint>  (295) 
BAO_0000190

>  <potential_duplicate>  (295) 
False

>  <uo_units>  (295) 
UO_0000065

>  <canonical_smiles>  (295) 
CN(C)S(=O)(=O)c1ccc(cc1)N(CC#C)Cc2ccc3nc(N)nc(O)c3c2

>  <parent_molecule_chembl_id>  (295) 
CHEMBL302669

>  <assay_type>  (295) 
B

>  <src_id>  (295) 
1

>  <ligand_efficiency>  (295) 
{u'le': u'0.22', u'bei': u'11.4', u'sei': u'3.88', u'lle': u'1.18'}

>  <standard_flag>  (295) 
True

>  <molecule_chembl_id>  (295) 
CHEMBL302669

>  <target_organism>  (295) 
Homo sapiens

>  <standard_units>  (295) 
nM

>  <record_id>  (295) 
109911

>  <document_chembl_id>  (295) 
CHEMBL1125094

>  <bao_format>  (295) 
BAO_0000357

>  <data_validity_description>  (295) 
None

>  <activity_id>  (295) 
1267143

>  <standard_type>  (295) 
IC50

>  <target_chembl_id>  (295) 
CHEMBL202

>  <data_validity_comment>  (295) 
None

>  <published_value>  (295) 
20.3

>  <document_year>  (295) 
1990

>  <target_pref_name>  (295) 
Dihydrofolate reductase

>  <assay_chembl_id>  (295) 
CHEMBL669254

>  <standard_relation>  (295) 
=

>  <assay_description>  (295) 
Tested for 50% inhibition of WI-L2 Dihydrofolate reductase

>  <published_relation>  (295) 
=

>  <standard_value>  (295) 
20300

>  <qudt_units>  (295) 
http://www.openphacts.org/units/Nanomolar

>  <target_tax_id>  (295) 
9606

>  <bao_label>  (295) 
single protein format

>  <published_units>  (295) 
uM

>  <pchembl_value>  (295) 
4.69

>  <published_type>  (295) 
IC50

>  <activity_comment>  (295) 
None

$$$$

     RDKit          

 28 30  0  0  0  0  0  0  0  0999 V2000
    0.0000    0.0000    0.0000 O   0  0  0  0  0  0  0  0  0  0  0  0
    0.0000    0.0000    0.0000 C   0  0  0  0  0  0  0  0  0  0  0  0
    0.0000    0.0000    0.0000 N   0  0  0  0  0  0  0  0  0  0  0  0
    0.0000    0.0000    0.0000 C   0  0  0  0  0  0  0  0  0  0  0  0
    0.0000    0.0000    0.0000 C   0  0  0  0  0  0  0  0  0  0  0  0
    0.0000    0.0000    0.0000 C   0  0  0  0  0  0  0  0  0  0  0  0
    0.0000    0.0000    0.0000 C   0  0  0  0  0  0  0  0  0  0  0  0
    0.0000    0.0000    0.0000 C   0  0  0  0  0  0  0  0  0  0  0  0
    0.0000    0.0000    0.0000 N   0  0  0  0  0  0  0  0  0  0  0  0
    0.0000    0.0000    0.0000 C   0  0  0  0  0  0  0  0  0  0  0  0
    0.0000    0.0000    0.0000 C   0  0  0  0  0  0  0  0  0  0  0  0
    0.0000    0.0000    0.0000 C   0  0  0  0  0  0  0  0  0  0  0  0
    0.0000    0.0000    0.0000 N   0  0  0  0  0  0  0  0  0  0  0  0
    0.0000    0.0000    0.0000 C   0  0  0  0  0  0  0  0  0  0  0  0
    0.0000    0.0000    0.0000 C   0  0  0  0  0  0  0  0  0  0  0  0
    0.0000    0.0000    0.0000 C   0  0  0  0  0  0  0  0  0  0  0  0
    0.0000    0.0000    0.0000 C   0  0  0  0  0  0  0  0  0  0  0  0
    0.0000    0.0000    0.0000 C   0  0  0  0  0  0  0  0  0  0  0  0
    0.0000    0.0000    0.0000 C   0  0  0  0  0  0  0  0  0  0  0  0
    0.0000    0.0000    0.0000 C   0  0  0  0  0  0  0  0  0  0  0  0
    0.0000    0.0000    0.0000 C   0  0  0  0  0  0  0  0  0  0  0  0
    0.0000    0.0000    0.0000 O   0  0  0  0  0  0  0  0  0  0  0  0
    0.0000    0.0000    0.0000 C   0  0  0  0  0  0  0  0  0  0  0  0
    0.0000    0.0000    0.0000 O   0  0  0  0  0  0  0  0  0  0  0  0
    0.0000    0.0000    0.0000 C   0  0  0  0  0  0  0  0  0  0  0  0
    0.0000    0.0000    0.0000 O   0  0  0  0  0  0  0  0  0  0  0  0
    0.0000    0.0000    0.0000 C   0  0  0  0  0  0  0  0  0  0  0  0
    0.0000    0.0000    0.0000 C   0  0  0  0  0  0  0  0  0  0  0  0
  1  2  2  0
  2  3  1  0
  2  4  1  0
  4  5  2  0
  4  6  1  0
  5  7  1  0
  8  6  2  0
  6  9  1  0
 10  7  1  0
  7 11  2  0
 11  8  1  0
  9 12  2  0
 13 10  1  0
 12  3  1  0
 14 13  1  0
 13 15  1  0
 16 14  2  0
 14 17  1  0
 15 18  1  0
 19 16  1  0
 17 20  2  0
 18 21  3  0
 22 19  1  0
 23 19  2  0
 20 24  1  0
 20 23  1  0
 25 22  1  0
 23 26  1  0
 24 27  1  0
 26 28  1  0
M  END
>  <pIC50>  (296) 
4.18

>  <ChEMBL_ID>  (296) 
CHEMBL433059

>  <document_journal>  (296) 
J. Med. Chem.

>  <bao_endpoint>  (296) 
BAO_0000190

>  <potential_duplicate>  (296) 
False

>  <uo_units>  (296) 
UO_0000065

>  <canonical_smiles>  (296) 
COc1cc(cc(OC)c1OC)N(CC#C)Cc2ccc3ncnc(O)c3c2

>  <parent_molecule_chembl_id>  (296) 
CHEMBL433059

>  <assay_type>  (296) 
B

>  <src_id>  (296) 
1

>  <ligand_efficiency>  (296) 
{u'le': u'0.2', u'bei': u'11.01', u'sei': u'5.43', u'lle': u'-0.39'}

>  <standard_flag>  (296) 
True

>  <molecule_chembl_id>  (296) 
CHEMBL433059

>  <target_organism>  (296) 
Homo sapiens

>  <standard_units>  (296) 
nM

>  <record_id>  (296) 
109919

>  <document_chembl_id>  (296) 
CHEMBL1125094

>  <bao_format>  (296) 
BAO_0000357

>  <data_validity_description>  (296) 
None

>  <activity_id>  (296) 
1276532

>  <standard_type>  (296) 
IC50

>  <target_chembl_id>  (296) 
CHEMBL202

>  <data_validity_comment>  (296) 
None

>  <published_value>  (296) 
66.6

>  <document_year>  (296) 
1990

>  <target_pref_name>  (296) 
Dihydrofolate reductase

>  <assay_chembl_id>  (296) 
CHEMBL669254

>  <standard_relation>  (296) 
=

>  <assay_description>  (296) 
Tested for 50% inhibition of WI-L2 Dihydrofolate reductase

>  <published_relation>  (296) 
=

>  <standard_value>  (296) 
66600

>  <qudt_units>  (296) 
http://www.openphacts.org/units/Nanomolar

>  <target_tax_id>  (296) 
9606

>  <bao_label>  (296) 
single protein format

>  <published_units>  (296) 
uM

>  <pchembl_value>  (296) 
4.18

>  <published_type>  (296) 
IC50

>  <activity_comment>  (296) 
None

$$$$

     RDKit          

 29 31  0  0  0  0  0  0  0  0999 V2000
    0.0000    0.0000    0.0000 O   0  0  0  0  0  0  0  0  0  0  0  0
    0.0000    0.0000    0.0000 C   0  0  0  0  0  0  0  0  0  0  0  0
    0.0000    0.0000    0.0000 N   0  0  0  0  0  0  0  0  0  0  0  0
    0.0000    0.0000    0.0000 C   0  0  0  0  0  0  0  0  0  0  0  0
    0.0000    0.0000    0.0000 C   0  0  0  0  0  0  0  0  0  0  0  0
    0.0000    0.0000    0.0000 C   0  0  0  0  0  0  0  0  0  0  0  0
    0.0000    0.0000    0.0000 C   0  0  0  0  0  0  0  0  0  0  0  0
    0.0000    0.0000    0.0000 C   0  0  0  0  0  0  0  0  0  0  0  0
    0.0000    0.0000    0.0000 N   0  0  0  0  0  0  0  0  0  0  0  0
    0.0000    0.0000    0.0000 C   0  0  0  0  0  0  0  0  0  0  0  0
    0.0000    0.0000    0.0000 C   0  0  0  0  0  0  0  0  0  0  0  0
    0.0000    0.0000    0.0000 C   0  0  0  0  0  0  0  0  0  0  0  0
    0.0000    0.0000    0.0000 N   0  0  0  0  0  0  0  0  0  0  0  0
    0.0000    0.0000    0.0000 N   0  0  0  0  0  0  0  0  0  0  0  0
    0.0000    0.0000    0.0000 C   0  0  0  0  0  0  0  0  0  0  0  0
    0.0000    0.0000    0.0000 C   0  0  0  0  0  0  0  0  0  0  0  0
    0.0000    0.0000    0.0000 C   0  0  0  0  0  0  0  0  0  0  0  0
    0.0000    0.0000    0.0000 C   0  0  0  0  0  0  0  0  0  0  0  0
    0.0000    0.0000    0.0000 C   0  0  0  0  0  0  0  0  0  0  0  0
    0.0000    0.0000    0.0000 C   0  0  0  0  0  0  0  0  0  0  0  0
    0.0000    0.0000    0.0000 C   0  0  0  0  0  0  0  0  0  0  0  0
    0.0000    0.0000    0.0000 C   0  0  0  0  0  0  0  0  0  0  0  0
    0.0000    0.0000    0.0000 C   0  0  0  0  0  0  0  0  0  0  0  0
    0.0000    0.0000    0.0000 C   0  0  0  0  0  0  0  0  0  0  0  0
    0.0000    0.0000    0.0000 O   0  0  0  0  0  0  0  0  0  0  0  0
    0.0000    0.0000    0.0000 C   0  0  0  0  0  0  0  0  0  0  0  0
    0.0000    0.0000    0.0000 F   0  0  0  0  0  0  0  0  0  0  0  0
    0.0000    0.0000    0.0000 F   0  0  0  0  0  0  0  0  0  0  0  0
    0.0000    0.0000    0.0000 F   0  0  0  0  0  0  0  0  0  0  0  0
  1  2  2  0
  2  3  1  0
  2  4  1  0
  4  5  2  0
  6  4  1  0
  5  7  1  0
  8  6  2  0
  6  9  1  0
  7 10  1  0
  7 11  2  0
 11  8  1  0
  9 12  2  0
 10 13  1  0
 14 12  1  0
 12  3  1  0
 13 15  1  0
 13 16  1  0
 15 17  1  0
 16 18  2  0
 19 16  1  0
 17 20  3  0
 18 21  1  0
 22 19  2  0
 21 23  2  0
 23 22  1  0
 23 24  1  0
 24 25  2  0
 24 26  1  0
 26 27  1  0
 26 28  1  0
 26 29  1  0
M  END
>  <pIC50>  (297) 
4.99

>  <ChEMBL_ID>  (297) 
CHEMBL304407

>  <document_journal>  (297) 
J. Med. Chem.

>  <bao_endpoint>  (297) 
BAO_0000190

>  <potential_duplicate>  (297) 
False

>  <uo_units>  (297) 
UO_0000065

>  <canonical_smiles>  (297) 
Nc1nc(O)c2cc(CN(CC#C)c3ccc(cc3)C(=O)C(F)(F)F)ccc2n1

>  <parent_molecule_chembl_id>  (297) 
CHEMBL304407

>  <assay_type>  (297) 
B

>  <src_id>  (297) 
1

>  <ligand_efficiency>  (297) 
{u'le': u'0.24', u'bei': u'12.47', u'sei': u'5.41', u'lle': u'-0.24'}

>  <standard_flag>  (297) 
True

>  <molecule_chembl_id>  (297) 
CHEMBL304407

>  <target_organism>  (297) 
Homo sapiens

>  <standard_units>  (297) 
nM

>  <record_id>  (297) 
109914

>  <document_chembl_id>  (297) 
CHEMBL1125094

>  <bao_format>  (297) 
BAO_0000357

>  <data_validity_description>  (297) 
None

>  <activity_id>  (297) 
1282754

>  <standard_type>  (297) 
IC50

>  <target_chembl_id>  (297) 
CHEMBL202

>  <data_validity_comment>  (297) 
None

>  <published_value>  (297) 
10.2

>  <document_year>  (297) 
1990

>  <target_pref_name>  (297) 
Dihydrofolate reductase

>  <assay_chembl_id>  (297) 
CHEMBL669254

>  <standard_relation>  (297) 
=

>  <assay_description>  (297) 
Tested for 50% inhibition of WI-L2 Dihydrofolate reductase

>  <published_relation>  (297) 
=

>  <standard_value>  (297) 
10200

>  <qudt_units>  (297) 
http://www.openphacts.org/units/Nanomolar

>  <target_tax_id>  (297) 
9606

>  <bao_label>  (297) 
single protein format

>  <published_units>  (297) 
uM

>  <pchembl_value>  (297) 
4.99

>  <published_type>  (297) 
IC50

>  <activity_comment>  (297) 
None

$$$$

     RDKit          

 25 27  0  0  0  0  0  0  0  0999 V2000
    0.0000    0.0000    0.0000 O   0  0  0  0  0  0  0  0  0  0  0  0
    0.0000    0.0000    0.0000 C   0  0  0  0  0  0  0  0  0  0  0  0
    0.0000    0.0000    0.0000 N   0  0  0  0  0  0  0  0  0  0  0  0
    0.0000    0.0000    0.0000 C   0  0  0  0  0  0  0  0  0  0  0  0
    0.0000    0.0000    0.0000 C   0  0  0  0  0  0  0  0  0  0  0  0
    0.0000    0.0000    0.0000 C   0  0  0  0  0  0  0  0  0  0  0  0
    0.0000    0.0000    0.0000 C   0  0  0  0  0  0  0  0  0  0  0  0
    0.0000    0.0000    0.0000 C   0  0  0  0  0  0  0  0  0  0  0  0
    0.0000    0.0000    0.0000 N   0  0  0  0  0  0  0  0  0  0  0  0
    0.0000    0.0000    0.0000 C   0  0  0  0  0  0  0  0  0  0  0  0
    0.0000    0.0000    0.0000 C   0  0  0  0  0  0  0  0  0  0  0  0
    0.0000    0.0000    0.0000 C   0  0  0  0  0  0  0  0  0  0  0  0
    0.0000    0.0000    0.0000 N   0  0  0  0  0  0  0  0  0  0  0  0
    0.0000    0.0000    0.0000 N   0  0  0  0  0  0  0  0  0  0  0  0
    0.0000    0.0000    0.0000 C   0  0  0  0  0  0  0  0  0  0  0  0
    0.0000    0.0000    0.0000 C   0  0  0  0  0  0  0  0  0  0  0  0
    0.0000    0.0000    0.0000 C   0  0  0  0  0  0  0  0  0  0  0  0
    0.0000    0.0000    0.0000 C   0  0  0  0  0  0  0  0  0  0  0  0
    0.0000    0.0000    0.0000 C   0  0  0  0  0  0  0  0  0  0  0  0
    0.0000    0.0000    0.0000 C   0  0  0  0  0  0  0  0  0  0  0  0
    0.0000    0.0000    0.0000 C   0  0  0  0  0  0  0  0  0  0  0  0
    0.0000    0.0000    0.0000 C   0  0  0  0  0  0  0  0  0  0  0  0
    0.0000    0.0000    0.0000 C   0  0  0  0  0  0  0  0  0  0  0  0
    0.0000    0.0000    0.0000 C   0  0  0  0  0  0  0  0  0  0  0  0
    0.0000    0.0000    0.0000 N   0  0  0  0  0  0  0  0  0  0  0  0
  1  2  2  0
  2  3  1  0
  2  4  1  0
  4  5  2  0
  6  4  1  0
  5  7  1  0
  8  6  2  0
  6  9  1  0
  7 10  1  0
  7 11  2  0
 11  8  1  0
  9 12  2  0
 10 13  1  0
 14 12  1  0
 12  3  1  0
 13 15  1  0
 13 16  1  0
 15 17  1  0
 16 18  2  0
 19 16  1  0
 17 20  3  0
 18 21  1  0
 22 19  2  0
 21 23  2  0
 23 22  1  0
 23 24  1  0
 24 25  3  0
M  END
>  <pIC50>  (298) 
4.18

>  <ChEMBL_ID>  (298) 
CHEMBL62675

>  <document_journal>  (298) 
J. Med. Chem.

>  <bao_endpoint>  (298) 
BAO_0000190

>  <potential_duplicate>  (298) 
False

>  <uo_units>  (298) 
UO_0000065

>  <canonical_smiles>  (298) 
Nc1nc(O)c2cc(CN(CC#C)c3ccc(cc3)C#N)ccc2n1

>  <parent_molecule_chembl_id>  (298) 
CHEMBL62675

>  <assay_type>  (298) 
B

>  <src_id>  (298) 
1

>  <ligand_efficiency>  (298) 
{u'le': u'0.23', u'bei': u'12.68', u'sei': u'4.22', u'lle': u'-0.1'}

>  <standard_flag>  (298) 
True

>  <molecule_chembl_id>  (298) 
CHEMBL62675

>  <target_organism>  (298) 
Homo sapiens

>  <standard_units>  (298) 
nM

>  <record_id>  (298) 
109909

>  <document_chembl_id>  (298) 
CHEMBL1125094

>  <bao_format>  (298) 
BAO_0000357

>  <data_validity_description>  (298) 
None

>  <activity_id>  (298) 
1287785

>  <standard_type>  (298) 
IC50

>  <target_chembl_id>  (298) 
CHEMBL202

>  <data_validity_comment>  (298) 
None

>  <published_value>  (298) 
66.6

>  <document_year>  (298) 
1990

>  <target_pref_name>  (298) 
Dihydrofolate reductase

>  <assay_chembl_id>  (298) 
CHEMBL669254

>  <standard_relation>  (298) 
=

>  <assay_description>  (298) 
Tested for 50% inhibition of WI-L2 Dihydrofolate reductase

>  <published_relation>  (298) 
=

>  <standard_value>  (298) 
66600

>  <qudt_units>  (298) 
http://www.openphacts.org/units/Nanomolar

>  <target_tax_id>  (298) 
9606

>  <bao_label>  (298) 
single protein format

>  <published_units>  (298) 
uM

>  <pchembl_value>  (298) 
4.18

>  <published_type>  (298) 
IC50

>  <activity_comment>  (298) 
None

$$$$

     RDKit          

 26 28  0  0  0  0  0  0  0  0999 V2000
    0.0000    0.0000    0.0000 O   0  0  0  0  0  0  0  0  0  0  0  0
    0.0000    0.0000    0.0000 C   0  0  0  0  0  0  0  0  0  0  0  0
    0.0000    0.0000    0.0000 N   0  0  0  0  0  0  0  0  0  0  0  0
    0.0000    0.0000    0.0000 C   0  0  0  0  0  0  0  0  0  0  0  0
    0.0000    0.0000    0.0000 C   0  0  0  0  0  0  0  0  0  0  0  0
    0.0000    0.0000    0.0000 C   0  0  0  0  0  0  0  0  0  0  0  0
    0.0000    0.0000    0.0000 C   0  0  0  0  0  0  0  0  0  0  0  0
    0.0000    0.0000    0.0000 C   0  0  0  0  0  0  0  0  0  0  0  0
    0.0000    0.0000    0.0000 N   0  0  0  0  0  0  0  0  0  0  0  0
    0.0000    0.0000    0.0000 C   0  0  0  0  0  0  0  0  0  0  0  0
    0.0000    0.0000    0.0000 C   0  0  0  0  0  0  0  0  0  0  0  0
    0.0000    0.0000    0.0000 C   0  0  0  0  0  0  0  0  0  0  0  0
    0.0000    0.0000    0.0000 N   0  0  0  0  0  0  0  0  0  0  0  0
    0.0000    0.0000    0.0000 N   0  0  0  0  0  0  0  0  0  0  0  0
    0.0000    0.0000    0.0000 C   0  0  0  0  0  0  0  0  0  0  0  0
    0.0000    0.0000    0.0000 C   0  0  0  0  0  0  0  0  0  0  0  0
    0.0000    0.0000    0.0000 C   0  0  0  0  0  0  0  0  0  0  0  0
    0.0000    0.0000    0.0000 C   0  0  0  0  0  0  0  0  0  0  0  0
    0.0000    0.0000    0.0000 C   0  0  0  0  0  0  0  0  0  0  0  0
    0.0000    0.0000    0.0000 C   0  0  0  0  0  0  0  0  0  0  0  0
    0.0000    0.0000    0.0000 C   0  0  0  0  0  0  0  0  0  0  0  0
    0.0000    0.0000    0.0000 C   0  0  0  0  0  0  0  0  0  0  0  0
    0.0000    0.0000    0.0000 C   0  0  0  0  0  0  0  0  0  0  0  0
    0.0000    0.0000    0.0000 N   0  0  0  0  0  0  0  0  0  0  0  0
    0.0000    0.0000    0.0000 O   0  0  0  0  0  0  0  0  0  0  0  0
    0.0000    0.0000    0.0000 O   0  0  0  0  0  0  0  0  0  0  0  0
  1  2  2  0
  2  3  1  0
  2  4  1  0
  4  5  2  0
  6  4  1  0
  5  7  1  0
  8  6  2  0
  6  9  1  0
  7 10  1  0
  7 11  2  0
 11  8  1  0
  9 12  2  0
 10 13  1  0
 14 12  1  0
 12  3  1  0
 13 15  1  0
 13 16  1  0
 15 17  1  0
 16 18  2  0
 19 16  1  0
 17 20  3  0
 18 21  1  0
 22 19  2  0
 21 23  2  0
 23 22  1  0
 23 24  1  0
 24 25  2  0
 24 26  1  0
M  CHG  2  24   1  26  -1
M  END
>  <pIC50>  (299) 
4.65

>  <ChEMBL_ID>  (299) 
CHEMBL62769

>  <document_journal>  (299) 
J. Med. Chem.

>  <bao_endpoint>  (299) 
BAO_0000190

>  <potential_duplicate>  (299) 
False

>  <uo_units>  (299) 
UO_0000065

>  <canonical_smiles>  (299) 
Nc1nc(O)c2cc(CN(CC#C)c3ccc(cc3)[N+](=O)[O-])ccc2n1

>  <parent_molecule_chembl_id>  (299) 
CHEMBL62769

>  <assay_type>  (299) 
B

>  <src_id>  (299) 
1

>  <ligand_efficiency>  (299) 
{u'le': u'0.24', u'bei': u'13.3', u'sei': u'3.84', u'lle': u'0.36'}

>  <standard_flag>  (299) 
True

>  <molecule_chembl_id>  (299) 
CHEMBL62769

>  <target_organism>  (299) 
Homo sapiens

>  <standard_units>  (299) 
nM

>  <record_id>  (299) 
109910

>  <document_chembl_id>  (299) 
CHEMBL1125094

>  <bao_format>  (299) 
BAO_0000357

>  <data_validity_description>  (299) 
None

>  <activity_id>  (299) 
1298892

>  <standard_type>  (299) 
IC50

>  <target_chembl_id>  (299) 
CHEMBL202

>  <data_validity_comment>  (299) 
None

>  <published_value>  (299) 
22.6

>  <document_year>  (299) 
1990

>  <target_pref_name>  (299) 
Dihydrofolate reductase

>  <assay_chembl_id>  (299) 
CHEMBL669254

>  <standard_relation>  (299) 
=

>  <assay_description>  (299) 
Tested for 50% inhibition of WI-L2 Dihydrofolate reductase

>  <published_relation>  (299) 
=

>  <standard_value>  (299) 
22600

>  <qudt_units>  (299) 
http://www.openphacts.org/units/Nanomolar

>  <target_tax_id>  (299) 
9606

>  <bao_label>  (299) 
single protein format

>  <published_units>  (299) 
uM

>  <pchembl_value>  (299) 
4.65

>  <published_type>  (299) 
IC50

>  <activity_comment>  (299) 
None

$$$$

     RDKit          

 25 27  0  0  0  0  0  0  0  0999 V2000
    0.0000    0.0000    0.0000 O   0  0  0  0  0  0  0  0  0  0  0  0
    0.0000    0.0000    0.0000 C   0  0  0  0  0  0  0  0  0  0  0  0
    0.0000    0.0000    0.0000 N   0  0  0  0  0  0  0  0  0  0  0  0
    0.0000    0.0000    0.0000 C   0  0  0  0  0  0  0  0  0  0  0  0
    0.0000    0.0000    0.0000 C   0  0  0  0  0  0  0  0  0  0  0  0
    0.0000    0.0000    0.0000 C   0  0  0  0  0  0  0  0  0  0  0  0
    0.0000    0.0000    0.0000 C   0  0  0  0  0  0  0  0  0  0  0  0
    0.0000    0.0000    0.0000 C   0  0  0  0  0  0  0  0  0  0  0  0
    0.0000    0.0000    0.0000 N   0  0  0  0  0  0  0  0  0  0  0  0
    0.0000    0.0000    0.0000 C   0  0  0  0  0  0  0  0  0  0  0  0
    0.0000    0.0000    0.0000 C   0  0  0  0  0  0  0  0  0  0  0  0
    0.0000    0.0000    0.0000 C   0  0  0  0  0  0  0  0  0  0  0  0
    0.0000    0.0000    0.0000 N   0  0  0  0  0  0  0  0  0  0  0  0
    0.0000    0.0000    0.0000 C   0  0  0  0  0  0  0  0  0  0  0  0
    0.0000    0.0000    0.0000 C   0  0  0  0  0  0  0  0  0  0  0  0
    0.0000    0.0000    0.0000 C   0  0  0  0  0  0  0  0  0  0  0  0
    0.0000    0.0000    0.0000 C   0  0  0  0  0  0  0  0  0  0  0  0
    0.0000    0.0000    0.0000 C   0  0  0  0  0  0  0  0  0  0  0  0
    0.0000    0.0000    0.0000 C   0  0  0  0  0  0  0  0  0  0  0  0
    0.0000    0.0000    0.0000 C   0  0  0  0  0  0  0  0  0  0  0  0
    0.0000    0.0000    0.0000 C   0  0  0  0  0  0  0  0  0  0  0  0
    0.0000    0.0000    0.0000 C   0  0  0  0  0  0  0  0  0  0  0  0
    0.0000    0.0000    0.0000 C   0  0  0  0  0  0  0  0  0  0  0  0
    0.0000    0.0000    0.0000 C   0  0  0  0  0  0  0  0  0  0  0  0
    0.0000    0.0000    0.0000 O   0  0  0  0  0  0  0  0  0  0  0  0
  1  2  2  0
  2  3  1  0
  2  4  1  0
  4  5  2  0
  4  6  1  0
  5  7  1  0
  8  6  2  0
  6  9  1  0
 10  7  1  0
  7 11  2  0
 11  8  1  0
  9 12  2  0
 13 10  1  0
 12  3  1  0
 14 13  1  0
 13 15  1  0
 16 14  2  0
 14 17  1  0
 15 18  1  0
 19 16  1  0
 17 20  2  0
 18 21  3  0
 22 19  2  0
 20 22  1  0
 23 22  1  0
 24 23  1  0
 23 25  2  0
M  END
>  <pIC50>  (300) 
4.0

>  <ChEMBL_ID>  (300) 
CHEMBL64215

>  <document_journal>  (300) 
J. Med. Chem.

>  <bao_endpoint>  (300) 
BAO_0000190

>  <potential_duplicate>  (300) 
False

>  <uo_units>  (300) 
UO_0000065

>  <canonical_smiles>  (300) 
CC(=O)c1ccc(cc1)N(CC#C)Cc2ccc3ncnc(O)c3c2

>  <parent_molecule_chembl_id>  (300) 
CHEMBL64215

>  <assay_type>  (300) 
B

>  <src_id>  (300) 
1

>  <ligand_efficiency>  (300) 
{u'le': u'0.22', u'bei': u'12.07', u'sei': u'6.03', u'lle': u'-0.36'}

>  <standard_flag>  (300) 
True

>  <molecule_chembl_id>  (300) 
CHEMBL64215

>  <target_organism>  (300) 
Homo sapiens

>  <standard_units>  (300) 
nM

>  <record_id>  (300) 
109920

>  <document_chembl_id>  (300) 
CHEMBL1125094

>  <bao_format>  (300) 
BAO_0000357

>  <data_validity_description>  (300) 
None

>  <activity_id>  (300) 
1298897

>  <standard_type>  (300) 
IC50

>  <target_chembl_id>  (300) 
CHEMBL202

>  <data_validity_comment>  (300) 
None

>  <published_value>  (300) 
100

>  <document_year>  (300) 
1990

>  <target_pref_name>  (300) 
Dihydrofolate reductase

>  <assay_chembl_id>  (300) 
CHEMBL669254

>  <standard_relation>  (300) 
=

>  <assay_description>  (300) 
Tested for 50% inhibition of WI-L2 Dihydrofolate reductase

>  <published_relation>  (300) 
=

>  <standard_value>  (300) 
100000

>  <qudt_units>  (300) 
http://www.openphacts.org/units/Nanomolar

>  <target_tax_id>  (300) 
9606

>  <bao_label>  (300) 
single protein format

>  <published_units>  (300) 
uM

>  <pchembl_value>  (300) 
4

>  <published_type>  (300) 
IC50

>  <activity_comment>  (300) 
None

$$$$

     RDKit          

 26 28  0  0  0  0  0  0  0  0999 V2000
    0.0000    0.0000    0.0000 O   0  0  0  0  0  0  0  0  0  0  0  0
    0.0000    0.0000    0.0000 C   0  0  0  0  0  0  0  0  0  0  0  0
    0.0000    0.0000    0.0000 N   0  0  0  0  0  0  0  0  0  0  0  0
    0.0000    0.0000    0.0000 C   0  0  0  0  0  0  0  0  0  0  0  0
    0.0000    0.0000    0.0000 C   0  0  0  0  0  0  0  0  0  0  0  0
    0.0000    0.0000    0.0000 C   0  0  0  0  0  0  0  0  0  0  0  0
    0.0000    0.0000    0.0000 C   0  0  0  0  0  0  0  0  0  0  0  0
    0.0000    0.0000    0.0000 C   0  0  0  0  0  0  0  0  0  0  0  0
    0.0000    0.0000    0.0000 N   0  0  0  0  0  0  0  0  0  0  0  0
    0.0000    0.0000    0.0000 C   0  0  0  0  0  0  0  0  0  0  0  0
    0.0000    0.0000    0.0000 C   0  0  0  0  0  0  0  0  0  0  0  0
    0.0000    0.0000    0.0000 C   0  0  0  0  0  0  0  0  0  0  0  0
    0.0000    0.0000    0.0000 N   0  0  0  0  0  0  0  0  0  0  0  0
    0.0000    0.0000    0.0000 N   0  0  0  0  0  0  0  0  0  0  0  0
    0.0000    0.0000    0.0000 C   0  0  0  0  0  0  0  0  0  0  0  0
    0.0000    0.0000    0.0000 C   0  0  0  0  0  0  0  0  0  0  0  0
    0.0000    0.0000    0.0000 C   0  0  0  0  0  0  0  0  0  0  0  0
    0.0000    0.0000    0.0000 C   0  0  0  0  0  0  0  0  0  0  0  0
    0.0000    0.0000    0.0000 C   0  0  0  0  0  0  0  0  0  0  0  0
    0.0000    0.0000    0.0000 C   0  0  0  0  0  0  0  0  0  0  0  0
    0.0000    0.0000    0.0000 C   0  0  0  0  0  0  0  0  0  0  0  0
    0.0000    0.0000    0.0000 C   0  0  0  0  0  0  0  0  0  0  0  0
    0.0000    0.0000    0.0000 C   0  0  0  0  0  0  0  0  0  0  0  0
    0.0000    0.0000    0.0000 C   0  0  0  0  0  0  0  0  0  0  0  0
    0.0000    0.0000    0.0000 C   0  0  0  0  0  0  0  0  0  0  0  0
    0.0000    0.0000    0.0000 O   0  0  0  0  0  0  0  0  0  0  0  0
  1  2  2  0
  2  3  1  0
  2  4  1  0
  4  5  2  0
  4  6  1  0
  5  7  1  0
  8  6  2  0
  6  9  1  0
 10  7  1  0
  7 11  2  0
 11  8  1  0
  9 12  2  0
 13 10  1  0
 12 14  1  0
 12  3  1  0
 15 13  1  0
 13 16  1  0
 17 15  2  0
 15 18  1  0
 16 19  1  0
 20 17  1  0
 18 21  2  0
 19 22  3  0
 23 20  2  0
 21 23  1  0
 24 23  1  0
 25 24  1  0
 24 26  2  0
M  END
>  <pIC50>  (301) 
4.43

>  <ChEMBL_ID>  (301) 
CHEMBL62599

>  <document_journal>  (301) 
J. Med. Chem.

>  <bao_endpoint>  (301) 
BAO_0000190

>  <potential_duplicate>  (301) 
False

>  <uo_units>  (301) 
UO_0000065

>  <canonical_smiles>  (301) 
CC(=O)c1ccc(cc1)N(CC#C)Cc2ccc3nc(N)nc(O)c3c2

>  <parent_molecule_chembl_id>  (301) 
CHEMBL62599

>  <assay_type>  (301) 
B

>  <src_id>  (301) 
1

>  <ligand_efficiency>  (301) 
{u'le': u'0.23', u'bei': u'12.78', u'sei': u'4.8', u'lle': u'0.29'}

>  <standard_flag>  (301) 
True

>  <molecule_chembl_id>  (301) 
CHEMBL62599

>  <target_organism>  (301) 
Homo sapiens

>  <standard_units>  (301) 
nM

>  <record_id>  (301) 
109908

>  <document_chembl_id>  (301) 
CHEMBL1125094

>  <bao_format>  (301) 
BAO_0000357

>  <data_validity_description>  (301) 
None

>  <activity_id>  (301) 
1300136

>  <standard_type>  (301) 
IC50

>  <target_chembl_id>  (301) 
CHEMBL202

>  <data_validity_comment>  (301) 
None

>  <published_value>  (301) 
37.3

>  <document_year>  (301) 
1990

>  <target_pref_name>  (301) 
Dihydrofolate reductase

>  <assay_chembl_id>  (301) 
CHEMBL669254

>  <standard_relation>  (301) 
=

>  <assay_description>  (301) 
Tested for 50% inhibition of WI-L2 Dihydrofolate reductase

>  <published_relation>  (301) 
=

>  <standard_value>  (301) 
37300

>  <qudt_units>  (301) 
http://www.openphacts.org/units/Nanomolar

>  <target_tax_id>  (301) 
9606

>  <bao_label>  (301) 
single protein format

>  <published_units>  (301) 
uM

>  <pchembl_value>  (301) 
4.43

>  <published_type>  (301) 
IC50

>  <activity_comment>  (301) 
None

$$$$

     RDKit          

 26 28  0  0  0  0  0  0  0  0999 V2000
    0.0000    0.0000    0.0000 O   0  0  0  0  0  0  0  0  0  0  0  0
    0.0000    0.0000    0.0000 C   0  0  0  0  0  0  0  0  0  0  0  0
    0.0000    0.0000    0.0000 N   0  0  0  0  0  0  0  0  0  0  0  0
    0.0000    0.0000    0.0000 C   0  0  0  0  0  0  0  0  0  0  0  0
    0.0000    0.0000    0.0000 C   0  0  0  0  0  0  0  0  0  0  0  0
    0.0000    0.0000    0.0000 C   0  0  0  0  0  0  0  0  0  0  0  0
    0.0000    0.0000    0.0000 C   0  0  0  0  0  0  0  0  0  0  0  0
    0.0000    0.0000    0.0000 C   0  0  0  0  0  0  0  0  0  0  0  0
    0.0000    0.0000    0.0000 N   0  0  0  0  0  0  0  0  0  0  0  0
    0.0000    0.0000    0.0000 C   0  0  0  0  0  0  0  0  0  0  0  0
    0.0000    0.0000    0.0000 C   0  0  0  0  0  0  0  0  0  0  0  0
    0.0000    0.0000    0.0000 C   0  0  0  0  0  0  0  0  0  0  0  0
    0.0000    0.0000    0.0000 N   0  0  0  0  0  0  0  0  0  0  0  0
    0.0000    0.0000    0.0000 N   0  0  0  0  0  0  0  0  0  0  0  0
    0.0000    0.0000    0.0000 C   0  0  0  0  0  0  0  0  0  0  0  0
    0.0000    0.0000    0.0000 C   0  0  0  0  0  0  0  0  0  0  0  0
    0.0000    0.0000    0.0000 C   0  0  0  0  0  0  0  0  0  0  0  0
    0.0000    0.0000    0.0000 C   0  0  0  0  0  0  0  0  0  0  0  0
    0.0000    0.0000    0.0000 C   0  0  0  0  0  0  0  0  0  0  0  0
    0.0000    0.0000    0.0000 C   0  0  0  0  0  0  0  0  0  0  0  0
    0.0000    0.0000    0.0000 C   0  0  0  0  0  0  0  0  0  0  0  0
    0.0000    0.0000    0.0000 C   0  0  0  0  0  0  0  0  0  0  0  0
    0.0000    0.0000    0.0000 C   0  0  0  0  0  0  0  0  0  0  0  0
    0.0000    0.0000    0.0000 C   0  0  0  0  0  0  0  0  0  0  0  0
    0.0000    0.0000    0.0000 N   0  0  0  0  0  0  0  0  0  0  0  0
    0.0000    0.0000    0.0000 O   0  0  0  0  0  0  0  0  0  0  0  0
  1  2  2  0
  2  3  1  0
  2  4  1  0
  4  5  2  0
  4  6  1  0
  5  7  1  0
  8  6  2  0
  6  9  1  0
 10  7  1  0
  7 11  2  0
 11  8  1  0
  9 12  2  0
 13 10  1  0
 12 14  1  0
 12  3  1  0
 15 13  1  0
 13 16  1  0
 17 15  2  0
 15 18  1  0
 16 19  1  0
 20 17  1  0
 18 21  2  0
 19 22  3  0
 23 20  2  0
 21 23  1  0
 24 23  1  0
 25 24  1  0
 24 26  2  0
M  END
>  <pIC50>  (302) 
4.14

>  <ChEMBL_ID>  (302) 
CHEMBL417562

>  <document_journal>  (302) 
J. Med. Chem.

>  <bao_endpoint>  (302) 
BAO_0000190

>  <potential_duplicate>  (302) 
False

>  <uo_units>  (302) 
UO_0000065

>  <canonical_smiles>  (302) 
NC(=O)c1ccc(cc1)N(CC#C)Cc2ccc3nc(N)nc(O)c3c2

>  <parent_molecule_chembl_id>  (302) 
CHEMBL417562

>  <assay_type>  (302) 
B

>  <src_id>  (302) 
1

>  <ligand_efficiency>  (302) 
{u'le': u'0.22', u'bei': u'11.92', u'sei': u'3.5', u'lle': u'0.74'}

>  <standard_flag>  (302) 
True

>  <molecule_chembl_id>  (302) 
CHEMBL417562

>  <target_organism>  (302) 
Homo sapiens

>  <standard_units>  (302) 
nM

>  <record_id>  (302) 
109912

>  <document_chembl_id>  (302) 
CHEMBL1125094

>  <bao_format>  (302) 
BAO_0000357

>  <data_validity_description>  (302) 
None

>  <activity_id>  (302) 
1302763

>  <standard_type>  (302) 
IC50

>  <target_chembl_id>  (302) 
CHEMBL202

>  <data_validity_comment>  (302) 
None

>  <published_value>  (302) 
72.6

>  <document_year>  (302) 
1990

>  <target_pref_name>  (302) 
Dihydrofolate reductase

>  <assay_chembl_id>  (302) 
CHEMBL669254

>  <standard_relation>  (302) 
=

>  <assay_description>  (302) 
Tested for 50% inhibition of WI-L2 Dihydrofolate reductase

>  <published_relation>  (302) 
=

>  <standard_value>  (302) 
72600

>  <qudt_units>  (302) 
http://www.openphacts.org/units/Nanomolar

>  <target_tax_id>  (302) 
9606

>  <bao_label>  (302) 
single protein format

>  <published_units>  (302) 
uM

>  <pchembl_value>  (302) 
4.14

>  <published_type>  (302) 
IC50

>  <activity_comment>  (302) 
None

$$$$

     RDKit          

 32 34  0  0  0  0  0  0  0  0999 V2000
    0.0000    0.0000    0.0000 N   0  0  0  0  0  0  0  0  0  0  0  0
    0.0000    0.0000    0.0000 C   0  0  0  0  0  0  0  0  0  0  0  0
    0.0000    0.0000    0.0000 N   0  0  0  0  0  0  0  0  0  0  0  0
    0.0000    0.0000    0.0000 C   0  0  0  0  0  0  0  0  0  0  0  0
    0.0000    0.0000    0.0000 N   0  0  0  0  0  0  0  0  0  0  0  0
    0.0000    0.0000    0.0000 C   0  0  0  0  0  0  0  0  0  0  0  0
    0.0000    0.0000    0.0000 C   0  0  0  0  0  0  0  0  0  0  0  0
    0.0000    0.0000    0.0000 C   0  0  0  0  0  0  0  0  0  0  0  0
    0.0000    0.0000    0.0000 C   0  0  0  0  0  0  0  0  0  0  0  0
    0.0000    0.0000    0.0000 C   0  0  0  0  0  0  0  0  0  0  0  0
    0.0000    0.0000    0.0000 C   0  0  0  0  0  0  0  0  0  0  0  0
    0.0000    0.0000    0.0000 C   0  0  0  0  0  0  0  0  0  0  0  0
    0.0000    0.0000    0.0000 C   0  0  0  0  0  0  0  0  0  0  0  0
    0.0000    0.0000    0.0000 C   0  0  0  0  0  0  0  0  0  0  0  0
    0.0000    0.0000    0.0000 C   0  0  0  0  0  0  0  0  0  0  0  0
    0.0000    0.0000    0.0000 C   0  0  0  0  0  0  0  0  0  0  0  0
    0.0000    0.0000    0.0000 C   0  0  0  0  0  0  0  0  0  0  0  0
    0.0000    0.0000    0.0000 O   0  0  0  0  0  0  0  0  0  0  0  0
    0.0000    0.0000    0.0000 N   0  0  0  0  0  0  0  0  0  0  0  0
    0.0000    0.0000    0.0000 C   0  0  0  0  0  0  0  0  0  0  0  0
    0.0000    0.0000    0.0000 C   0  0  0  0  0  0  0  0  0  0  0  0
    0.0000    0.0000    0.0000 C   0  0  0  0  0  0  0  0  0  0  0  0
    0.0000    0.0000    0.0000 C   0  0  0  0  0  0  0  0  0  0  0  0
    0.0000    0.0000    0.0000 O   0  0  0  0  0  0  0  0  0  0  0  0
    0.0000    0.0000    0.0000 O   0  0  0  0  0  0  0  0  0  0  0  0
    0.0000    0.0000    0.0000 C   0  0  0  0  0  0  0  0  0  0  0  0
    0.0000    0.0000    0.0000 O   0  0  0  0  0  0  0  0  0  0  0  0
    0.0000    0.0000    0.0000 O   0  0  0  0  0  0  0  0  0  0  0  0
    0.0000    0.0000    0.0000 C   0  0  0  0  0  0  0  0  0  0  0  0
    0.0000    0.0000    0.0000 O   0  0  0  0  0  0  0  0  0  0  0  0
    0.0000    0.0000    0.0000 C   0  0  0  0  0  0  0  0  0  0  0  0
    0.0000    0.0000    0.0000 N   0  0  0  0  0  0  0  0  0  0  0  0
  1  2  1  0
  2  3  2  0
  3  4  1  0
  4  5  1  0
  4  6  2  0
  6  7  1  0
  7  8  1  0
  8  9  1  0
  9 10  1  0
 10 11  1  0
 11 12  2  0
 12 13  1  0
 13 14  2  0
 14 15  1  0
 15 16  2  0
 14 17  1  0
 17 18  2  0
 17 19  1  0
 19 20  1  0
 20 21  1  0
 21 22  1  0
 22 23  1  0
 23 24  2  0
 23 25  1  0
 20 26  1  0
 26 27  2  0
 26 28  1  0
  7 29  2  0
 29 30  1  0
 30 31  1  0
 31 32  2  0
 32  2  1  0
 31  6  1  0
 16 11  1  0
M  END
>  <pIC50>  (303) 
5.05

>  <ChEMBL_ID>  (303) 
CHEMBL223279

>  <document_journal>  (303) 
J. Med. Chem.

>  <bao_endpoint>  (303) 
BAO_0000190

>  <potential_duplicate>  (303) 
True

>  <uo_units>  (303) 
UO_0000065

>  <canonical_smiles>  (303) 
Nc1nc(N)c2c(CCCc3ccc(cc3)C(=O)N[C@@H](CCC(=O)O)C(=O)O)coc2n1

>  <parent_molecule_chembl_id>  (303) 
CHEMBL223279

>  <assay_type>  (303) 
B

>  <src_id>  (303) 
1

>  <ligand_efficiency>  (303) 
{u'le': u'0.22', u'bei': u'11.43', u'sei': u'2.59', u'lle': u'3.17'}

>  <standard_flag>  (303) 
True

>  <molecule_chembl_id>  (303) 
CHEMBL223279

>  <target_organism>  (303) 
Homo sapiens

>  <standard_units>  (303) 
nM

>  <record_id>  (303) 
386838

>  <document_chembl_id>  (303) 
CHEMBL1141150

>  <bao_format>  (303) 
BAO_0000357

>  <data_validity_description>  (303) 
None

>  <activity_id>  (303) 
1495120

>  <standard_type>  (303) 
IC50

>  <target_chembl_id>  (303) 
CHEMBL202

>  <data_validity_comment>  (303) 
None

>  <published_value>  (303) 
9

>  <document_year>  (303) 
2005

>  <target_pref_name>  (303) 
Dihydrofolate reductase

>  <assay_chembl_id>  (303) 
CHEMBL829464

>  <standard_relation>  (303) 
=

>  <assay_description>  (303) 
Inhibition of human dihydrofolate reductase at 37 degree C pH 7.4

>  <published_relation>  (303) 
=

>  <standard_value>  (303) 
9000

>  <qudt_units>  (303) 
http://www.openphacts.org/units/Nanomolar

>  <target_tax_id>  (303) 
9606

>  <bao_label>  (303) 
single protein format

>  <published_units>  (303) 
uM

>  <pchembl_value>  (303) 
5.05

>  <published_type>  (303) 
IC50

>  <activity_comment>  (303) 
None

$$$$

     RDKit          

 33 35  0  0  0  0  0  0  0  0999 V2000
    0.0000    0.0000    0.0000 N   0  0  0  0  0  0  0  0  0  0  0  0
    0.0000    0.0000    0.0000 C   0  0  0  0  0  0  0  0  0  0  0  0
    0.0000    0.0000    0.0000 N   0  0  0  0  0  0  0  0  0  0  0  0
    0.0000    0.0000    0.0000 C   0  0  0  0  0  0  0  0  0  0  0  0
    0.0000    0.0000    0.0000 N   0  0  0  0  0  0  0  0  0  0  0  0
    0.0000    0.0000    0.0000 C   0  0  0  0  0  0  0  0  0  0  0  0
    0.0000    0.0000    0.0000 C   0  0  0  0  0  0  0  0  0  0  0  0
    0.0000    0.0000    0.0000 C   0  0  0  0  0  0  0  0  0  0  0  0
    0.0000    0.0000    0.0000 C   0  0  0  0  0  0  0  0  0  0  0  0
    0.0000    0.0000    0.0000 C   0  0  0  0  0  0  0  0  0  0  0  0
    0.0000    0.0000    0.0000 C   0  0  0  0  0  0  0  0  0  0  0  0
    0.0000    0.0000    0.0000 C   0  0  0  0  0  0  0  0  0  0  0  0
    0.0000    0.0000    0.0000 C   0  0  0  0  0  0  0  0  0  0  0  0
    0.0000    0.0000    0.0000 C   0  0  0  0  0  0  0  0  0  0  0  0
    0.0000    0.0000    0.0000 C   0  0  0  0  0  0  0  0  0  0  0  0
    0.0000    0.0000    0.0000 C   0  0  0  0  0  0  0  0  0  0  0  0
    0.0000    0.0000    0.0000 C   0  0  0  0  0  0  0  0  0  0  0  0
    0.0000    0.0000    0.0000 C   0  0  0  0  0  0  0  0  0  0  0  0
    0.0000    0.0000    0.0000 O   0  0  0  0  0  0  0  0  0  0  0  0
    0.0000    0.0000    0.0000 N   0  0  0  0  0  0  0  0  0  0  0  0
    0.0000    0.0000    0.0000 C   0  0  0  0  0  0  0  0  0  0  0  0
    0.0000    0.0000    0.0000 C   0  0  0  0  0  0  0  0  0  0  0  0
    0.0000    0.0000    0.0000 C   0  0  0  0  0  0  0  0  0  0  0  0
    0.0000    0.0000    0.0000 C   0  0  0  0  0  0  0  0  0  0  0  0
    0.0000    0.0000    0.0000 O   0  0  0  0  0  0  0  0  0  0  0  0
    0.0000    0.0000    0.0000 O   0  0  0  0  0  0  0  0  0  0  0  0
    0.0000    0.0000    0.0000 C   0  0  0  0  0  0  0  0  0  0  0  0
    0.0000    0.0000    0.0000 O   0  0  0  0  0  0  0  0  0  0  0  0
    0.0000    0.0000    0.0000 O   0  0  0  0  0  0  0  0  0  0  0  0
    0.0000    0.0000    0.0000 C   0  0  0  0  0  0  0  0  0  0  0  0
    0.0000    0.0000    0.0000 O   0  0  0  0  0  0  0  0  0  0  0  0
    0.0000    0.0000    0.0000 C   0  0  0  0  0  0  0  0  0  0  0  0
    0.0000    0.0000    0.0000 N   0  0  0  0  0  0  0  0  0  0  0  0
  1  2  1  0
  2  3  2  0
  3  4  1  0
  4  5  1  0
  4  6  2  0
  6  7  1  0
  7  8  1  0
  8  9  1  0
  9 10  1  0
 10 11  1  0
 11 12  1  0
 12 13  2  0
 13 14  1  0
 14 15  2  0
 15 16  1  0
 16 17  2  0
 15 18  1  0
 18 19  2  0
 18 20  1  0
 20 21  1  0
 21 22  1  0
 22 23  1  0
 23 24  1  0
 24 25  2  0
 24 26  1  0
 21 27  1  0
 27 28  2  0
 27 29  1  0
  7 30  2  0
 30 31  1  0
 31 32  1  0
 32 33  2  0
 33  2  1  0
 32  6  1  0
 17 12  1  0
M  END
>  <pIC50>  (304) 
4.68

>  <ChEMBL_ID>  (304) 
CHEMBL193275

>  <document_journal>  (304) 
J. Med. Chem.

>  <bao_endpoint>  (304) 
BAO_0000190

>  <potential_duplicate>  (304) 
False

>  <uo_units>  (304) 
UO_0000065

>  <canonical_smiles>  (304) 
Nc1nc(N)c2c(CCCCc3ccc(cc3)C(=O)N[C@@H](CCC(=O)O)C(=O)O)coc2n1

>  <parent_molecule_chembl_id>  (304) 
CHEMBL193275

>  <assay_type>  (304) 
B

>  <src_id>  (304) 
1

>  <ligand_efficiency>  (304) 
{u'le': u'0.19', u'bei': u'10.27', u'sei': u'2.4', u'lle': u'2.34'}

>  <standard_flag>  (304) 
True

>  <molecule_chembl_id>  (304) 
CHEMBL193275

>  <target_organism>  (304) 
Homo sapiens

>  <standard_units>  (304) 
nM

>  <record_id>  (304) 
386879

>  <document_chembl_id>  (304) 
CHEMBL1141150

>  <bao_format>  (304) 
BAO_0000357

>  <data_validity_description>  (304) 
None

>  <activity_id>  (304) 
1495257

>  <standard_type>  (304) 
IC50

>  <target_chembl_id>  (304) 
CHEMBL202

>  <data_validity_comment>  (304) 
None

>  <published_value>  (304) 
21

>  <document_year>  (304) 
2005

>  <target_pref_name>  (304) 
Dihydrofolate reductase

>  <assay_chembl_id>  (304) 
CHEMBL829464

>  <standard_relation>  (304) 
=

>  <assay_description>  (304) 
Inhibition of human dihydrofolate reductase at 37 degree C pH 7.4

>  <published_relation>  (304) 
=

>  <standard_value>  (304) 
21000

>  <qudt_units>  (304) 
http://www.openphacts.org/units/Nanomolar

>  <target_tax_id>  (304) 
9606

>  <bao_label>  (304) 
single protein format

>  <published_units>  (304) 
uM

>  <pchembl_value>  (304) 
4.68

>  <published_type>  (304) 
IC50

>  <activity_comment>  (304) 
None

$$$$

     RDKit          

 31 33  0  0  0  0  0  0  0  0999 V2000
    0.0000    0.0000    0.0000 C   0  0  0  0  0  0  0  0  0  0  0  0
    0.0000    0.0000    0.0000 C   0  0  0  0  0  0  0  0  0  0  0  0
    0.0000    0.0000    0.0000 N   0  0  0  0  0  0  0  0  0  0  0  0
    0.0000    0.0000    0.0000 C   0  0  0  0  0  0  0  0  0  0  0  0
    0.0000    0.0000    0.0000 N   0  0  0  0  0  0  0  0  0  0  0  0
    0.0000    0.0000    0.0000 C   0  0  0  0  0  0  0  0  0  0  0  0
    0.0000    0.0000    0.0000 N   0  0  0  0  0  0  0  0  0  0  0  0
    0.0000    0.0000    0.0000 N   0  0  0  0  0  0  0  0  0  0  0  0
    0.0000    0.0000    0.0000 C   0  0  0  0  0  0  0  0  0  0  0  0
    0.0000    0.0000    0.0000 O   0  0  0  0  0  0  0  0  0  0  0  0
    0.0000    0.0000    0.0000 C   0  0  0  0  0  0  0  0  0  0  0  0
    0.0000    0.0000    0.0000 C   0  0  0  0  0  0  0  0  0  0  0  0
    0.0000    0.0000    0.0000 S   0  0  0  0  0  0  0  0  0  0  0  0
    0.0000    0.0000    0.0000 C   0  0  0  0  0  0  0  0  0  0  0  0
    0.0000    0.0000    0.0000 C   0  0  0  0  0  0  0  0  0  0  0  0
    0.0000    0.0000    0.0000 C   0  0  0  0  0  0  0  0  0  0  0  0
    0.0000    0.0000    0.0000 C   0  0  0  0  0  0  0  0  0  0  0  0
    0.0000    0.0000    0.0000 C   0  0  0  0  0  0  0  0  0  0  0  0
    0.0000    0.0000    0.0000 C   0  0  0  0  0  0  0  0  0  0  0  0
    0.0000    0.0000    0.0000 C   0  0  0  0  0  0  0  0  0  0  0  0
    0.0000    0.0000    0.0000 O   0  0  0  0  0  0  0  0  0  0  0  0
    0.0000    0.0000    0.0000 N   0  0  0  0  0  0  0  0  0  0  0  0
    0.0000    0.0000    0.0000 C   0  0  0  0  0  0  0  0  0  0  0  0
    0.0000    0.0000    0.0000 C   0  0  0  0  0  0  0  0  0  0  0  0
    0.0000    0.0000    0.0000 C   0  0  0  0  0  0  0  0  0  0  0  0
    0.0000    0.0000    0.0000 C   0  0  0  0  0  0  0  0  0  0  0  0
    0.0000    0.0000    0.0000 O   0  0  0  0  0  0  0  0  0  0  0  0
    0.0000    0.0000    0.0000 O   0  0  0  0  0  0  0  0  0  0  0  0
    0.0000    0.0000    0.0000 C   0  0  0  0  0  0  0  0  0  0  0  0
    0.0000    0.0000    0.0000 O   0  0  0  0  0  0  0  0  0  0  0  0
    0.0000    0.0000    0.0000 O   0  0  0  0  0  0  0  0  0  0  0  0
  1  2  1  0
  2  3  1  0
  3  4  1  0
  4  5  1  0
  5  6  2  0
  6  7  1  0
  6  8  1  0
  8  9  1  0
  9 10  2  0
  9 11  1  0
 11 12  1  0
 12 13  1  0
 13 14  1  0
 14 15  2  0
 15 16  1  0
 16 17  2  0
 17 18  1  0
 18 19  2  0
 17 20  1  0
 20 21  2  0
 20 22  1  0
 22 23  1  0
 23 24  1  0
 24 25  1  0
 25 26  1  0
 26 27  2  0
 26 28  1  0
 23 29  1  0
 29 30  2  0
 29 31  1  0
 12  2  2  0
 11  4  2  0
 19 14  1  0
M  END
>  <pIC50>  (305) 
5.676

>  <ChEMBL_ID>  (305) 
CHEMBL225180

>  <document_journal>  (305) 
J. Med. Chem.

>  <bao_endpoint>  (305) 
BAO_0000190

>  <potential_duplicate>  (305) 
True

>  <uo_units>  (305) 
UO_0000065

>  <canonical_smiles>  (305) 
Cc1[nH]c2N=C(N)NC(=O)c2c1Sc3ccc(cc3)C(=O)N[C@@H](CCC(=O)O)C(=O)O

>  <parent_molecule_chembl_id>  (305) 
CHEMBL225180

>  <assay_type>  (305) 
B

>  <src_id>  (305) 
1

>  <ligand_efficiency>  (305) 
{u'le': u'0.25', u'bei': u'12.75', u'sei': u'2.67', u'lle': u'4.7'}

>  <standard_flag>  (305) 
True

>  <molecule_chembl_id>  (305) 
CHEMBL225180

>  <target_organism>  (305) 
Homo sapiens

>  <standard_units>  (305) 
nM

>  <record_id>  (305) 
423927

>  <document_chembl_id>  (305) 
CHEMBL1149399

>  <bao_format>  (305) 
BAO_0000357

>  <data_validity_description>  (305) 
None

>  <activity_id>  (305) 
1676884

>  <standard_type>  (305) 
IC50

>  <target_chembl_id>  (305) 
CHEMBL202

>  <data_validity_comment>  (305) 
None

>  <published_value>  (305) 
2.1

>  <document_year>  (305) 
2006

>  <target_pref_name>  (305) 
Dihydrofolate reductase

>  <assay_chembl_id>  (305) 
CHEMBL867007

>  <standard_relation>  (305) 
=

>  <assay_description>  (305) 
Inhibition of recombinant human DHFR

>  <published_relation>  (305) 
=

>  <standard_value>  (305) 
2100

>  <qudt_units>  (305) 
http://www.openphacts.org/units/Nanomolar

>  <target_tax_id>  (305) 
9606

>  <bao_label>  (305) 
single protein format

>  <published_units>  (305) 
uM

>  <pchembl_value>  (305) 
5.68

>  <published_type>  (305) 
IC50

>  <activity_comment>  (305) 
None

$$$$

     RDKit          

 32 34  0  0  0  0  0  0  0  0999 V2000
    0.0000    0.0000    0.0000 O   0  0  0  0  0  0  0  0  0  0  0  0
    0.0000    0.0000    0.0000 C   0  0  0  0  0  0  0  0  0  0  0  0
    0.0000    0.0000    0.0000 N   0  0  0  0  0  0  0  0  0  0  0  0
    0.0000    0.0000    0.0000 C   0  0  0  0  0  0  0  0  0  0  0  0
    0.0000    0.0000    0.0000 C   0  0  0  0  0  0  0  0  0  0  0  0
    0.0000    0.0000    0.0000 C   0  0  0  0  0  0  0  0  0  0  0  0
    0.0000    0.0000    0.0000 S   0  0  0  0  0  0  0  0  0  0  0  0
    0.0000    0.0000    0.0000 C   0  0  0  0  0  0  0  0  0  0  0  0
    0.0000    0.0000    0.0000 N   0  0  0  0  0  0  0  0  0  0  0  0
    0.0000    0.0000    0.0000 N   0  0  0  0  0  0  0  0  0  0  0  0
    0.0000    0.0000    0.0000 C   0  0  0  0  0  0  0  0  0  0  0  0
    0.0000    0.0000    0.0000 C   0  0  0  0  0  0  0  0  0  0  0  0
    0.0000    0.0000    0.0000 C   0  0  0  0  0  0  0  0  0  0  0  0
    0.0000    0.0000    0.0000 C   0  0  0  0  0  0  0  0  0  0  0  0
    0.0000    0.0000    0.0000 C   0  0  0  0  0  0  0  0  0  0  0  0
    0.0000    0.0000    0.0000 C   0  0  0  0  0  0  0  0  0  0  0  0
    0.0000    0.0000    0.0000 N   0  0  0  0  0  0  0  0  0  0  0  0
    0.0000    0.0000    0.0000 C   0  0  0  0  0  0  0  0  0  0  0  0
    0.0000    0.0000    0.0000 C   0  0  0  0  0  0  0  0  0  0  0  0
    0.0000    0.0000    0.0000 C   0  0  0  0  0  0  0  0  0  0  0  0
    0.0000    0.0000    0.0000 C   0  0  0  0  0  0  0  0  0  0  0  0
    0.0000    0.0000    0.0000 O   0  0  0  0  0  0  0  0  0  0  0  0
    0.0000    0.0000    0.0000 N   0  0  0  0  0  0  0  0  0  0  0  0
    0.0000    0.0000    0.0000 C   0  0  0  0  0  0  0  0  0  0  0  0
    0.0000    0.0000    0.0000 C   0  0  0  0  0  0  0  0  0  0  0  0
    0.0000    0.0000    0.0000 C   0  0  0  0  0  0  0  0  0  0  0  0
    0.0000    0.0000    0.0000 C   0  0  0  0  0  0  0  0  0  0  0  0
    0.0000    0.0000    0.0000 O   0  0  0  0  0  0  0  0  0  0  0  0
    0.0000    0.0000    0.0000 O   0  0  0  0  0  0  0  0  0  0  0  0
    0.0000    0.0000    0.0000 C   0  0  0  0  0  0  0  0  0  0  0  0
    0.0000    0.0000    0.0000 O   0  0  0  0  0  0  0  0  0  0  0  0
    0.0000    0.0000    0.0000 O   0  0  0  0  0  0  0  0  0  0  0  0
  1  2  2  0
  2  3  1  0
  2  4  1  0
  4  5  1  0
  4  6  2  0
  5  7  1  0
  5  8  2  0
  9  6  1  0
  6 10  1  0
  7 11  1  0
 12  8  1  0
  8  9  1  0
 10 13  2  0
 11 14  2  0
 15 11  1  0
 16 12  1  0
 13 17  1  0
 13  3  1  0
 14 18  1  0
 19 15  2  0
 18 20  2  0
 20 19  1  0
 20 21  1  0
 21 22  2  0
 21 23  1  0
 23 24  1  0
 24 25  1  0
 24 26  1  0
 25 27  1  0
 26 28  2  0
 26 29  1  0
 27 30  1  0
 30 31  2  0
 30 32  1  0
M  END
>  <pIC50>  (306) 
6.38

>  <ChEMBL_ID>  (306) 
CHEMBL371860

>  <document_journal>  (306) 
J. Med. Chem.

>  <bao_endpoint>  (306) 
BAO_0000190

>  <potential_duplicate>  (306) 
False

>  <uo_units>  (306) 
UO_0000065

>  <canonical_smiles>  (306) 
CCc1[nH]c2nc(N)nc(O)c2c1Sc3ccc(cc3)C(=O)N[C@@H](CCC(=O)O)C(=O)O

>  <parent_molecule_chembl_id>  (306) 
CHEMBL371860

>  <assay_type>  (306) 
B

>  <src_id>  (306) 
1

>  <ligand_efficiency>  (306) 
{u'le': u'0.27', u'bei': u'13.88', u'sei': u'2.94', u'lle': u'3.96'}

>  <standard_flag>  (306) 
True

>  <molecule_chembl_id>  (306) 
CHEMBL371860

>  <target_organism>  (306) 
Homo sapiens

>  <standard_units>  (306) 
nM

>  <record_id>  (306) 
423928

>  <document_chembl_id>  (306) 
CHEMBL1149399

>  <bao_format>  (306) 
BAO_0000357

>  <data_validity_description>  (306) 
None

>  <activity_id>  (306) 
1676893

>  <standard_type>  (306) 
IC50

>  <target_chembl_id>  (306) 
CHEMBL202

>  <data_validity_comment>  (306) 
None

>  <published_value>  (306) 
0.42

>  <document_year>  (306) 
2006

>  <target_pref_name>  (306) 
Dihydrofolate reductase

>  <assay_chembl_id>  (306) 
CHEMBL867007

>  <standard_relation>  (306) 
=

>  <assay_description>  (306) 
Inhibition of recombinant human DHFR

>  <published_relation>  (306) 
=

>  <standard_value>  (306) 
420

>  <qudt_units>  (306) 
http://www.openphacts.org/units/Nanomolar

>  <target_tax_id>  (306) 
9606

>  <bao_label>  (306) 
single protein format

>  <published_units>  (306) 
uM

>  <pchembl_value>  (306) 
6.38

>  <published_type>  (306) 
IC50

>  <activity_comment>  (306) 
None

$$$$

     RDKit          

 29 32  0  0  0  0  0  0  0  0999 V2000
    0.0000    0.0000    0.0000 N   0  0  0  0  0  0  0  0  0  0  0  0
    0.0000    0.0000    0.0000 C   0  0  0  0  0  0  0  0  0  0  0  0
    0.0000    0.0000    0.0000 N   0  0  0  0  0  0  0  0  0  0  0  0
    0.0000    0.0000    0.0000 C   0  0  0  0  0  0  0  0  0  0  0  0
    0.0000    0.0000    0.0000 N   0  0  0  0  0  0  0  0  0  0  0  0
    0.0000    0.0000    0.0000 C   0  0  0  0  0  0  0  0  0  0  0  0
    0.0000    0.0000    0.0000 C   0  0  0  0  0  0  0  0  0  0  0  0
    0.0000    0.0000    0.0000 C   0  0  0  0  0  0  0  0  0  0  0  0
    0.0000    0.0000    0.0000 O   0  0  0  0  0  0  0  0  0  0  0  0
    0.0000    0.0000    0.0000 C   0  0  0  0  0  0  0  0  0  0  0  0
    0.0000    0.0000    0.0000 C   0  0  0  0  0  0  0  0  0  0  0  0
    0.0000    0.0000    0.0000 C   0  0  0  0  0  0  0  0  0  0  0  0
    0.0000    0.0000    0.0000 C   0  0  0  0  0  0  0  0  0  0  0  0
    0.0000    0.0000    0.0000 C   0  0  0  0  0  0  0  0  0  0  0  0
    0.0000    0.0000    0.0000 C   0  0  0  0  0  0  0  0  0  0  0  0
    0.0000    0.0000    0.0000 C   0  0  0  0  0  0  0  0  0  0  0  0
    0.0000    0.0000    0.0000 N   0  0  0  0  0  0  0  0  0  0  0  0
    0.0000    0.0000    0.0000 C   0  0  0  0  0  0  0  0  0  0  0  0
    0.0000    0.0000    0.0000 C   0  0  0  0  0  0  0  0  0  0  0  0
    0.0000    0.0000    0.0000 C   0  0  0  0  0  0  0  0  0  0  0  0
    0.0000    0.0000    0.0000 C   0  0  0  0  0  0  0  0  0  0  0  0
    0.0000    0.0000    0.0000 N   0  0  0  0  0  0  0  0  0  0  0  0
    0.0000    0.0000    0.0000 C   0  0  0  0  0  0  0  0  0  0  0  0
    0.0000    0.0000    0.0000 O   0  0  0  0  0  0  0  0  0  0  0  0
    0.0000    0.0000    0.0000 C   0  0  0  0  0  0  0  0  0  0  0  0
    0.0000    0.0000    0.0000 C   0  0  0  0  0  0  0  0  0  0  0  0
    0.0000    0.0000    0.0000 C   0  0  0  0  0  0  0  0  0  0  0  0
    0.0000    0.0000    0.0000 C   0  0  0  0  0  0  0  0  0  0  0  0
    0.0000    0.0000    0.0000 C   0  0  0  0  0  0  0  0  0  0  0  0
  1  2  1  0
  2  3  2  0
  3  4  1  0
  4  5  1  0
  4  6  2  0
  6  7  1  0
  7  8  1  0
  8  9  1  0
  9 10  1  0
 10 11  1  0
 11 12  2  0
 12 13  1  0
 13 14  2  0
 14 15  1  0
 15 16  2  0
  7 17  2  0
  6 18  1  0
 18 19  2  0
 19 20  1  0
 20 21  2  0
 21 22  1  0
 22 23  1  0
 23 24  2  0
 23 25  1  0
 25 26  1  0
 26 27  1  0
 21 28  1  0
 28 29  2  0
 17  2  1  0
 16 11  1  0
 29 18  1  0
 27 25  1  0
M  END
>  <pIC50>  (307) 
4.55

>  <ChEMBL_ID>  (307) 
CHEMBL211265

>  <document_journal>  (307) 
J. Med. Chem.

>  <bao_endpoint>  (307) 
BAO_0000190

>  <potential_duplicate>  (307) 
False

>  <uo_units>  (307) 
UO_0000065

>  <canonical_smiles>  (307) 
Nc1nc(N)c(c(COCc2ccccc2)n1)c3ccc(NC(=O)C4CC4)cc3

>  <parent_molecule_chembl_id>  (307) 
CHEMBL211265

>  <assay_type>  (307) 
B

>  <src_id>  (307) 
1

>  <ligand_efficiency>  (307) 
{u'le': u'0.21', u'bei': u'11.69', u'sei': u'3.92', u'lle': u'1.93'}

>  <standard_flag>  (307) 
True

>  <molecule_chembl_id>  (307) 
CHEMBL211265

>  <target_organism>  (307) 
Homo sapiens

>  <standard_units>  (307) 
nM

>  <record_id>  (307) 
501144

>  <document_chembl_id>  (307) 
CHEMBL1138039

>  <bao_format>  (307) 
BAO_0000357

>  <data_validity_description>  (307) 
None

>  <activity_id>  (307) 
1734135

>  <standard_type>  (307) 
IC50

>  <target_chembl_id>  (307) 
CHEMBL202

>  <data_validity_comment>  (307) 
None

>  <published_value>  (307) 
28

>  <document_year>  (307) 
2006

>  <target_pref_name>  (307) 
Dihydrofolate reductase

>  <assay_chembl_id>  (307) 
CHEMBL869067

>  <standard_relation>  (307) 
=

>  <assay_description>  (307) 
Inhibition of human recombinant DHFR assessed as rate of depletion of NADPH

>  <published_relation>  (307) 
=

>  <standard_value>  (307) 
28000

>  <qudt_units>  (307) 
http://www.openphacts.org/units/Nanomolar

>  <target_tax_id>  (307) 
9606

>  <bao_label>  (307) 
single protein format

>  <published_units>  (307) 
uM

>  <pchembl_value>  (307) 
4.55

>  <published_type>  (307) 
IC50

>  <activity_comment>  (307) 
None

$$$$

     RDKit          

 36 40  0  0  0  0  0  0  0  0999 V2000
    0.0000    0.0000    0.0000 C   0  0  0  0  0  0  0  0  0  0  0  0
    0.0000    0.0000    0.0000 C   0  0  0  0  0  0  0  0  0  0  0  0
    0.0000    0.0000    0.0000 C   0  0  0  0  0  0  0  0  0  0  0  0
    0.0000    0.0000    0.0000 N   0  0  0  0  0  0  0  0  0  0  0  0
    0.0000    0.0000    0.0000 C   0  0  0  0  0  0  0  0  0  0  0  0
    0.0000    0.0000    0.0000 N   0  0  0  0  0  0  0  0  0  0  0  0
    0.0000    0.0000    0.0000 N   0  0  0  0  0  0  0  0  0  0  0  0
    0.0000    0.0000    0.0000 C   0  0  0  0  0  0  0  0  0  0  0  0
    0.0000    0.0000    0.0000 N   0  0  0  0  0  0  0  0  0  0  0  0
    0.0000    0.0000    0.0000 C   0  0  0  0  0  0  0  0  0  0  0  0
    0.0000    0.0000    0.0000 C   0  0  0  0  0  0  0  0  0  0  0  0
    0.0000    0.0000    0.0000 C   0  0  0  0  0  0  0  0  0  0  0  0
    0.0000    0.0000    0.0000 C   0  0  0  0  0  0  0  0  0  0  0  0
    0.0000    0.0000    0.0000 C   0  0  0  0  0  0  0  0  0  0  0  0
    0.0000    0.0000    0.0000 C   0  0  0  0  0  0  0  0  0  0  0  0
    0.0000    0.0000    0.0000 C   0  0  0  0  0  0  0  0  0  0  0  0
    0.0000    0.0000    0.0000 N   0  0  0  0  0  0  0  0  0  0  0  0
    0.0000    0.0000    0.0000 C   0  0  0  0  0  0  0  0  0  0  0  0
    0.0000    0.0000    0.0000 C   0  0  0  0  0  0  0  0  0  0  0  0
    0.0000    0.0000    0.0000 C   0  0  0  0  0  0  0  0  0  0  0  0
    0.0000    0.0000    0.0000 C   0  0  0  0  0  0  0  0  0  0  0  0
    0.0000    0.0000    0.0000 C   0  0  0  0  0  0  0  0  0  0  0  0
    0.0000    0.0000    0.0000 C   0  0  0  0  0  0  0  0  0  0  0  0
    0.0000    0.0000    0.0000 C   0  0  0  0  0  0  0  0  0  0  0  0
    0.0000    0.0000    0.0000 N   0  0  0  0  0  0  0  0  0  0  0  0
    0.0000    0.0000    0.0000 C   0  0  0  0  0  0  0  0  0  0  0  0
    0.0000    0.0000    0.0000 C   0  0  0  0  0  0  0  0  0  0  0  0
    0.0000    0.0000    0.0000 C   0  0  0  0  0  0  0  0  0  0  0  0
    0.0000    0.0000    0.0000 C   0  0  0  0  0  0  0  0  0  0  0  0
    0.0000    0.0000    0.0000 C   0  0  0  0  0  0  0  0  0  0  0  0
    0.0000    0.0000    0.0000 C   0  0  0  0  0  0  0  0  0  0  0  0
    0.0000    0.0000    0.0000 C   0  0  0  0  0  0  0  0  0  0  0  0
    0.0000    0.0000    0.0000 S   0  0  0  0  0  0  0  0  0  0  0  0
    0.0000    0.0000    0.0000 O   0  0  0  0  0  0  0  0  0  0  0  0
    0.0000    0.0000    0.0000 O   0  0  0  0  0  0  0  0  0  0  0  0
    0.0000    0.0000    0.0000 C   0  0  0  0  0  0  0  0  0  0  0  0
  1  2  1  0
  2  3  1  0
  3  4  2  0
  4  5  1  0
  5  6  1  0
  5  7  2  0
  7  8  1  0
  8  9  1  0
  8 10  2  0
 10 11  1  0
 11 12  2  0
 12 13  1  0
 13 14  2  0
 14 15  1  0
 15 16  2  0
 15 17  1  0
 17 18  2  0
 18 19  1  0
 19 20  2  0
 20 21  1  0
 21 22  2  0
 22 23  1  0
 23 24  2  0
 18 25  1  0
 25 26  1  0
 26 27  1  0
 27 28  2  0
 28 29  1  0
 29 30  2  0
 30 31  1  0
 31 32  2  0
 30 33  1  0
 33 34  2  0
 33 35  2  0
 33 36  1  0
 10  3  1  0
 16 11  1  0
 25 14  1  0
 24 19  1  0
 32 27  1  0
M  END
>  <pIC50>  (308) 
5.64

>  <ChEMBL_ID>  (308) 
CHEMBL209394

>  <document_journal>  (308) 
J. Med. Chem.

>  <bao_endpoint>  (308) 
BAO_0000190

>  <potential_duplicate>  (308) 
False

>  <uo_units>  (308) 
UO_0000065

>  <canonical_smiles>  (308) 
CCc1nc(N)nc(N)c1c2ccc3c(c2)nc(c4ccccc4)n3Cc5ccc(cc5)S(=O)(=O)C

>  <parent_molecule_chembl_id>  (308) 
CHEMBL209394

>  <assay_type>  (308) 
B

>  <src_id>  (308) 
1

>  <ligand_efficiency>  (308) 
{u'le': u'0.21', u'bei': u'11.31', u'sei': u'4.08', u'lle': u'0.8'}

>  <standard_flag>  (308) 
True

>  <molecule_chembl_id>  (308) 
CHEMBL209394

>  <target_organism>  (308) 
Homo sapiens

>  <standard_units>  (308) 
nM

>  <record_id>  (308) 
501140

>  <document_chembl_id>  (308) 
CHEMBL1138039

>  <bao_format>  (308) 
BAO_0000357

>  <data_validity_description>  (308) 
None

>  <activity_id>  (308) 
1734155

>  <standard_type>  (308) 
IC50

>  <target_chembl_id>  (308) 
CHEMBL202

>  <data_validity_comment>  (308) 
None

>  <published_value>  (308) 
2.3

>  <document_year>  (308) 
2006

>  <target_pref_name>  (308) 
Dihydrofolate reductase

>  <assay_chembl_id>  (308) 
CHEMBL869067

>  <standard_relation>  (308) 
=

>  <assay_description>  (308) 
Inhibition of human recombinant DHFR assessed as rate of depletion of NADPH

>  <published_relation>  (308) 
=

>  <standard_value>  (308) 
2300

>  <qudt_units>  (308) 
http://www.openphacts.org/units/Nanomolar

>  <target_tax_id>  (308) 
9606

>  <bao_label>  (308) 
single protein format

>  <published_units>  (308) 
uM

>  <pchembl_value>  (308) 
5.64

>  <published_type>  (308) 
IC50

>  <activity_comment>  (308) 
None

$$$$

     RDKit          

 32 35  0  0  0  0  0  0  0  0999 V2000
    0.0000    0.0000    0.0000 N   0  0  0  0  0  0  0  0  0  0  0  0
    0.0000    0.0000    0.0000 C   0  0  0  0  0  0  0  0  0  0  0  0
    0.0000    0.0000    0.0000 N   0  0  0  0  0  0  0  0  0  0  0  0
    0.0000    0.0000    0.0000 C   0  0  0  0  0  0  0  0  0  0  0  0
    0.0000    0.0000    0.0000 N   0  0  0  0  0  0  0  0  0  0  0  0
    0.0000    0.0000    0.0000 C   0  0  0  0  0  0  0  0  0  0  0  0
    0.0000    0.0000    0.0000 C   0  0  0  0  0  0  0  0  0  0  0  0
    0.0000    0.0000    0.0000 C   0  0  0  0  0  0  0  0  0  0  0  0
    0.0000    0.0000    0.0000 O   0  0  0  0  0  0  0  0  0  0  0  0
    0.0000    0.0000    0.0000 C   0  0  0  0  0  0  0  0  0  0  0  0
    0.0000    0.0000    0.0000 C   0  0  0  0  0  0  0  0  0  0  0  0
    0.0000    0.0000    0.0000 C   0  0  0  0  0  0  0  0  0  0  0  0
    0.0000    0.0000    0.0000 C   0  0  0  0  0  0  0  0  0  0  0  0
    0.0000    0.0000    0.0000 C   0  0  0  0  0  0  0  0  0  0  0  0
    0.0000    0.0000    0.0000 C   0  0  0  0  0  0  0  0  0  0  0  0
    0.0000    0.0000    0.0000 C   0  0  0  0  0  0  0  0  0  0  0  0
    0.0000    0.0000    0.0000 N   0  0  0  0  0  0  0  0  0  0  0  0
    0.0000    0.0000    0.0000 C   0  0  0  0  0  0  0  0  0  0  0  0
    0.0000    0.0000    0.0000 C   0  0  0  0  0  0  0  0  0  0  0  0
    0.0000    0.0000    0.0000 C   0  0  0  0  0  0  0  0  0  0  0  0
    0.0000    0.0000    0.0000 C   0  0  0  0  0  0  0  0  0  0  0  0
    0.0000    0.0000    0.0000 N   0  0  0  0  0  0  0  0  0  0  0  0
    0.0000    0.0000    0.0000 C   0  0  0  0  0  0  0  0  0  0  0  0
    0.0000    0.0000    0.0000 C   0  0  0  0  0  0  0  0  0  0  0  0
    0.0000    0.0000    0.0000 C   0  0  0  0  0  0  0  0  0  0  0  0
    0.0000    0.0000    0.0000 C   0  0  0  0  0  0  0  0  0  0  0  0
    0.0000    0.0000    0.0000 C   0  0  0  0  0  0  0  0  0  0  0  0
    0.0000    0.0000    0.0000 Cl  0  0  0  0  0  0  0  0  0  0  0  0
    0.0000    0.0000    0.0000 C   0  0  0  0  0  0  0  0  0  0  0  0
    0.0000    0.0000    0.0000 C   0  0  0  0  0  0  0  0  0  0  0  0
    0.0000    0.0000    0.0000 C   0  0  0  0  0  0  0  0  0  0  0  0
    0.0000    0.0000    0.0000 C   0  0  0  0  0  0  0  0  0  0  0  0
  1  2  1  0
  2  3  2  0
  3  4  1  0
  4  5  1  0
  4  6  2  0
  6  7  1  0
  7  8  1  0
  8  9  1  0
  9 10  1  0
 10 11  1  0
 11 12  2  0
 12 13  1  0
 13 14  2  0
 14 15  1  0
 15 16  2  0
  7 17  2  0
  6 18  1  0
 18 19  2  0
 19 20  1  0
 20 21  2  0
 21 22  1  0
 22 23  1  0
 23 24  1  0
 24 25  2  0
 25 26  1  0
 26 27  2  0
 27 28  1  0
 27 29  1  0
 29 30  2  0
 21 31  1  0
 31 32  2  0
 17  2  1  0
 16 11  1  0
 32 18  1  0
 30 24  1  0
M  END
>  <pIC50>  (309) 
6.52

>  <ChEMBL_ID>  (309) 
CHEMBL425048

>  <document_journal>  (309) 
J. Med. Chem.

>  <bao_endpoint>  (309) 
BAO_0000190

>  <potential_duplicate>  (309) 
False

>  <uo_units>  (309) 
UO_0000065

>  <canonical_smiles>  (309) 
Nc1nc(N)c(c(COCc2ccccc2)n1)c3ccc(NCc4ccc(Cl)cc4)cc3

>  <parent_molecule_chembl_id>  (309) 
CHEMBL425048

>  <assay_type>  (309) 
B

>  <src_id>  (309) 
1

>  <ligand_efficiency>  (309) 
{u'le': u'0.28', u'bei': u'14.63', u'sei': u'6.58', u'lle': u'1.72'}

>  <standard_flag>  (309) 
True

>  <molecule_chembl_id>  (309) 
CHEMBL425048

>  <target_organism>  (309) 
Homo sapiens

>  <standard_units>  (309) 
nM

>  <record_id>  (309) 
501136

>  <document_chembl_id>  (309) 
CHEMBL1138039

>  <bao_format>  (309) 
BAO_0000357

>  <data_validity_description>  (309) 
None

>  <activity_id>  (309) 
1734181

>  <standard_type>  (309) 
IC50

>  <target_chembl_id>  (309) 
CHEMBL202

>  <data_validity_comment>  (309) 
None

>  <published_value>  (309) 
0.3

>  <document_year>  (309) 
2006

>  <target_pref_name>  (309) 
Dihydrofolate reductase

>  <assay_chembl_id>  (309) 
CHEMBL869067

>  <standard_relation>  (309) 
=

>  <assay_description>  (309) 
Inhibition of human recombinant DHFR assessed as rate of depletion of NADPH

>  <published_relation>  (309) 
=

>  <standard_value>  (309) 
300

>  <qudt_units>  (309) 
http://www.openphacts.org/units/Nanomolar

>  <target_tax_id>  (309) 
9606

>  <bao_label>  (309) 
single protein format

>  <published_units>  (309) 
uM

>  <pchembl_value>  (309) 
6.52

>  <published_type>  (309) 
IC50

>  <activity_comment>  (309) 
None

$$$$

     RDKit          

 35 39  0  0  0  0  0  0  0  0999 V2000
    0.0000    0.0000    0.0000 C   0  0  0  0  0  0  0  0  0  0  0  0
    0.0000    0.0000    0.0000 C   0  0  0  0  0  0  0  0  0  0  0  0
    0.0000    0.0000    0.0000 C   0  0  0  0  0  0  0  0  0  0  0  0
    0.0000    0.0000    0.0000 N   0  0  0  0  0  0  0  0  0  0  0  0
    0.0000    0.0000    0.0000 C   0  0  0  0  0  0  0  0  0  0  0  0
    0.0000    0.0000    0.0000 N   0  0  0  0  0  0  0  0  0  0  0  0
    0.0000    0.0000    0.0000 N   0  0  0  0  0  0  0  0  0  0  0  0
    0.0000    0.0000    0.0000 C   0  0  0  0  0  0  0  0  0  0  0  0
    0.0000    0.0000    0.0000 N   0  0  0  0  0  0  0  0  0  0  0  0
    0.0000    0.0000    0.0000 C   0  0  0  0  0  0  0  0  0  0  0  0
    0.0000    0.0000    0.0000 C   0  0  0  0  0  0  0  0  0  0  0  0
    0.0000    0.0000    0.0000 C   0  0  0  0  0  0  0  0  0  0  0  0
    0.0000    0.0000    0.0000 C   0  0  0  0  0  0  0  0  0  0  0  0
    0.0000    0.0000    0.0000 C   0  0  0  0  0  0  0  0  0  0  0  0
    0.0000    0.0000    0.0000 C   0  0  0  0  0  0  0  0  0  0  0  0
    0.0000    0.0000    0.0000 C   0  0  0  0  0  0  0  0  0  0  0  0
    0.0000    0.0000    0.0000 N   0  0  0  0  0  0  0  0  0  0  0  0
    0.0000    0.0000    0.0000 C   0  0  0  0  0  0  0  0  0  0  0  0
    0.0000    0.0000    0.0000 C   0  0  0  0  0  0  0  0  0  0  0  0
    0.0000    0.0000    0.0000 C   0  0  0  0  0  0  0  0  0  0  0  0
    0.0000    0.0000    0.0000 C   0  0  0  0  0  0  0  0  0  0  0  0
    0.0000    0.0000    0.0000 C   0  0  0  0  0  0  0  0  0  0  0  0
    0.0000    0.0000    0.0000 C   0  0  0  0  0  0  0  0  0  0  0  0
    0.0000    0.0000    0.0000 N   0  0  0  0  0  0  0  0  0  0  0  0
    0.0000    0.0000    0.0000 C   0  0  0  0  0  0  0  0  0  0  0  0
    0.0000    0.0000    0.0000 C   0  0  0  0  0  0  0  0  0  0  0  0
    0.0000    0.0000    0.0000 C   0  0  0  0  0  0  0  0  0  0  0  0
    0.0000    0.0000    0.0000 C   0  0  0  0  0  0  0  0  0  0  0  0
    0.0000    0.0000    0.0000 C   0  0  0  0  0  0  0  0  0  0  0  0
    0.0000    0.0000    0.0000 C   0  0  0  0  0  0  0  0  0  0  0  0
    0.0000    0.0000    0.0000 C   0  0  0  0  0  0  0  0  0  0  0  0
    0.0000    0.0000    0.0000 S   0  0  0  0  0  0  0  0  0  0  0  0
    0.0000    0.0000    0.0000 O   0  0  0  0  0  0  0  0  0  0  0  0
    0.0000    0.0000    0.0000 O   0  0  0  0  0  0  0  0  0  0  0  0
    0.0000    0.0000    0.0000 C   0  0  0  0  0  0  0  0  0  0  0  0
  1  2  1  0
  2  3  1  0
  3  4  2  0
  4  5  1  0
  5  6  1  0
  5  7  2  0
  7  8  1  0
  8  9  1  0
  8 10  2  0
 10 11  1  0
 11 12  2  0
 12 13  1  0
 13 14  2  0
 14 15  1  0
 15 16  2  0
 15 17  1  0
 17 18  2  0
 18 19  1  0
 19 20  1  0
 20 21  1  0
 21 22  1  0
 22 23  1  0
 18 24  1  0
 24 25  1  0
 25 26  1  0
 26 27  2  0
 27 28  1  0
 28 29  2  0
 29 30  1  0
 30 31  2  0
 29 32  1  0
 32 33  2  0
 32 34  2  0
 32 35  1  0
 10  3  1  0
 16 11  1  0
 24 14  1  0
 23 19  1  0
 31 26  1  0
M  END
>  <pIC50>  (310) 
5.74

>  <ChEMBL_ID>  (310) 
CHEMBL209443

>  <document_journal>  (310) 
J. Med. Chem.

>  <bao_endpoint>  (310) 
BAO_0000190

>  <potential_duplicate>  (310) 
False

>  <uo_units>  (310) 
UO_0000065

>  <canonical_smiles>  (310) 
CCc1nc(N)nc(N)c1c2ccc3c(c2)nc(C4CCCC4)n3Cc5ccc(cc5)S(=O)(=O)C

>  <parent_molecule_chembl_id>  (310) 
CHEMBL209443

>  <assay_type>  (310) 
B

>  <src_id>  (310) 
1

>  <ligand_efficiency>  (310) 
{u'le': u'0.22', u'bei': u'11.69', u'sei': u'4.15', u'lle': u'0.89'}

>  <standard_flag>  (310) 
True

>  <molecule_chembl_id>  (310) 
CHEMBL209443

>  <target_organism>  (310) 
Homo sapiens

>  <standard_units>  (310) 
nM

>  <record_id>  (310) 
501139

>  <document_chembl_id>  (310) 
CHEMBL1138039

>  <bao_format>  (310) 
BAO_0000357

>  <data_validity_description>  (310) 
None

>  <activity_id>  (310) 
1734196

>  <standard_type>  (310) 
IC50

>  <target_chembl_id>  (310) 
CHEMBL202

>  <data_validity_comment>  (310) 
None

>  <published_value>  (310) 
1.83

>  <document_year>  (310) 
2006

>  <target_pref_name>  (310) 
Dihydrofolate reductase

>  <assay_chembl_id>  (310) 
CHEMBL869067

>  <standard_relation>  (310) 
=

>  <assay_description>  (310) 
Inhibition of human recombinant DHFR assessed as rate of depletion of NADPH

>  <published_relation>  (310) 
=

>  <standard_value>  (310) 
1830

>  <qudt_units>  (310) 
http://www.openphacts.org/units/Nanomolar

>  <target_tax_id>  (310) 
9606

>  <bao_label>  (310) 
single protein format

>  <published_units>  (310) 
uM

>  <pchembl_value>  (310) 
5.74

>  <published_type>  (310) 
IC50

>  <activity_comment>  (310) 
None

$$$$

     RDKit          

 32 34  0  0  0  0  0  0  0  0999 V2000
    0.0000    0.0000    0.0000 C   0  0  0  0  0  0  0  0  0  0  0  0
    0.0000    0.0000    0.0000 C   0  0  0  0  0  0  0  0  0  0  0  0
    0.0000    0.0000    0.0000 N   0  0  0  0  0  0  0  0  0  0  0  0
    0.0000    0.0000    0.0000 C   0  0  0  0  0  0  0  0  0  0  0  0
    0.0000    0.0000    0.0000 N   0  0  0  0  0  0  0  0  0  0  0  0
    0.0000    0.0000    0.0000 C   0  0  0  0  0  0  0  0  0  0  0  0
    0.0000    0.0000    0.0000 N   0  0  0  0  0  0  0  0  0  0  0  0
    0.0000    0.0000    0.0000 N   0  0  0  0  0  0  0  0  0  0  0  0
    0.0000    0.0000    0.0000 C   0  0  0  0  0  0  0  0  0  0  0  0
    0.0000    0.0000    0.0000 O   0  0  0  0  0  0  0  0  0  0  0  0
    0.0000    0.0000    0.0000 C   0  0  0  0  0  0  0  0  0  0  0  0
    0.0000    0.0000    0.0000 C   0  0  0  0  0  0  0  0  0  0  0  0
    0.0000    0.0000    0.0000 S   0  0  0  0  0  0  0  0  0  0  0  0
    0.0000    0.0000    0.0000 C   0  0  0  0  0  0  0  0  0  0  0  0
    0.0000    0.0000    0.0000 C   0  0  0  0  0  0  0  0  0  0  0  0
    0.0000    0.0000    0.0000 C   0  0  0  0  0  0  0  0  0  0  0  0
    0.0000    0.0000    0.0000 C   0  0  0  0  0  0  0  0  0  0  0  0
    0.0000    0.0000    0.0000 C   0  0  0  0  0  0  0  0  0  0  0  0
    0.0000    0.0000    0.0000 O   0  0  0  0  0  0  0  0  0  0  0  0
    0.0000    0.0000    0.0000 N   0  0  0  0  0  0  0  0  0  0  0  0
    0.0000    0.0000    0.0000 C   0  0  0  0  0  0  0  0  0  0  0  0
    0.0000    0.0000    0.0000 C   0  0  0  0  0  0  0  0  0  0  0  0
    0.0000    0.0000    0.0000 C   0  0  0  0  0  0  0  0  0  0  0  0
    0.0000    0.0000    0.0000 C   0  0  0  0  0  0  0  0  0  0  0  0
    0.0000    0.0000    0.0000 O   0  0  0  0  0  0  0  0  0  0  0  0
    0.0000    0.0000    0.0000 O   0  0  0  0  0  0  0  0  0  0  0  0
    0.0000    0.0000    0.0000 C   0  0  0  0  0  0  0  0  0  0  0  0
    0.0000    0.0000    0.0000 O   0  0  0  0  0  0  0  0  0  0  0  0
    0.0000    0.0000    0.0000 O   0  0  0  0  0  0  0  0  0  0  0  0
    0.0000    0.0000    0.0000 C   0  0  0  0  0  0  0  0  0  0  0  0
    0.0000    0.0000    0.0000 Cl  0  0  0  0  0  0  0  0  0  0  0  0
    0.0000    0.0000    0.0000 C   0  0  0  0  0  0  0  0  0  0  0  0
  1  2  1  0
  2  3  1  0
  3  4  1  0
  4  5  1  0
  5  6  2  0
  6  7  1  0
  6  8  1  0
  8  9  1  0
  9 10  2  0
  9 11  1  0
 11 12  1  0
 12 13  1  0
 13 14  1  0
 14 15  2  0
 15 16  1  0
 16 17  2  0
 17 18  1  0
 18 19  2  0
 18 20  1  0
 20 21  1  0
 21 22  1  0
 22 23  1  0
 23 24  1  0
 24 25  2  0
 24 26  1  0
 21 27  1  0
 27 28  2  0
 27 29  1  0
 17 30  1  0
 30 31  1  0
 30 32  2  0
 12  2  2  0
 11  4  2  0
 32 14  1  0
M  END
>  <pIC50>  (311) 
4.96

>  <ChEMBL_ID>  (311) 
CHEMBL224868

>  <document_journal>  (311) 
J. Med. Chem.

>  <bao_endpoint>  (311) 
BAO_0000190

>  <potential_duplicate>  (311) 
False

>  <uo_units>  (311) 
UO_0000065

>  <canonical_smiles>  (311) 
Cc1[nH]c2N=C(N)NC(=O)c2c1Sc3ccc(C(=O)N[C@@H](CCC(=O)O)C(=O)O)c(Cl)c3

>  <parent_molecule_chembl_id>  (311) 
CHEMBL224868

>  <assay_type>  (311) 
B

>  <src_id>  (311) 
1

>  <ligand_efficiency>  (311) 
{u'le': u'0.21', u'bei': u'10.33', u'sei': u'2.34', u'lle': u'3.32'}

>  <standard_flag>  (311) 
True

>  <molecule_chembl_id>  (311) 
CHEMBL224868

>  <target_organism>  (311) 
Homo sapiens

>  <standard_units>  (311) 
nM

>  <record_id>  (311) 
630605

>  <document_chembl_id>  (311) 
CHEMBL1149301

>  <bao_format>  (311) 
BAO_0000357

>  <data_validity_description>  (311) 
None

>  <activity_id>  (311) 
1842436

>  <standard_type>  (311) 
IC50

>  <target_chembl_id>  (311) 
CHEMBL202

>  <data_validity_comment>  (311) 
None

>  <published_value>  (311) 
11

>  <document_year>  (311) 
2004

>  <target_pref_name>  (311) 
Dihydrofolate reductase

>  <assay_chembl_id>  (311) 
CHEMBL916823

>  <standard_relation>  (311) 
=

>  <assay_description>  (311) 
Inhibition of human DHFR

>  <published_relation>  (311) 
=

>  <standard_value>  (311) 
11000

>  <qudt_units>  (311) 
http://www.openphacts.org/units/Nanomolar

>  <target_tax_id>  (311) 
9606

>  <bao_label>  (311) 
single protein format

>  <published_units>  (311) 
uM

>  <pchembl_value>  (311) 
4.96

>  <published_type>  (311) 
IC50

>  <activity_comment>  (311) 
None

$$$$

     RDKit          

 32 34  0  0  0  0  0  0  0  0999 V2000
    0.0000    0.0000    0.0000 C   0  0  0  0  0  0  0  0  0  0  0  0
    0.0000    0.0000    0.0000 C   0  0  0  0  0  0  0  0  0  0  0  0
    0.0000    0.0000    0.0000 N   0  0  0  0  0  0  0  0  0  0  0  0
    0.0000    0.0000    0.0000 C   0  0  0  0  0  0  0  0  0  0  0  0
    0.0000    0.0000    0.0000 N   0  0  0  0  0  0  0  0  0  0  0  0
    0.0000    0.0000    0.0000 C   0  0  0  0  0  0  0  0  0  0  0  0
    0.0000    0.0000    0.0000 N   0  0  0  0  0  0  0  0  0  0  0  0
    0.0000    0.0000    0.0000 N   0  0  0  0  0  0  0  0  0  0  0  0
    0.0000    0.0000    0.0000 C   0  0  0  0  0  0  0  0  0  0  0  0
    0.0000    0.0000    0.0000 O   0  0  0  0  0  0  0  0  0  0  0  0
    0.0000    0.0000    0.0000 C   0  0  0  0  0  0  0  0  0  0  0  0
    0.0000    0.0000    0.0000 C   0  0  0  0  0  0  0  0  0  0  0  0
    0.0000    0.0000    0.0000 S   0  0  0  0  0  0  0  0  0  0  0  0
    0.0000    0.0000    0.0000 C   0  0  0  0  0  0  0  0  0  0  0  0
    0.0000    0.0000    0.0000 C   0  0  0  0  0  0  0  0  0  0  0  0
    0.0000    0.0000    0.0000 C   0  0  0  0  0  0  0  0  0  0  0  0
    0.0000    0.0000    0.0000 C   0  0  0  0  0  0  0  0  0  0  0  0
    0.0000    0.0000    0.0000 C   0  0  0  0  0  0  0  0  0  0  0  0
    0.0000    0.0000    0.0000 O   0  0  0  0  0  0  0  0  0  0  0  0
    0.0000    0.0000    0.0000 N   0  0  0  0  0  0  0  0  0  0  0  0
    0.0000    0.0000    0.0000 C   0  0  0  0  0  0  0  0  0  0  0  0
    0.0000    0.0000    0.0000 C   0  0  0  0  0  0  0  0  0  0  0  0
    0.0000    0.0000    0.0000 C   0  0  0  0  0  0  0  0  0  0  0  0
    0.0000    0.0000    0.0000 C   0  0  0  0  0  0  0  0  0  0  0  0
    0.0000    0.0000    0.0000 O   0  0  0  0  0  0  0  0  0  0  0  0
    0.0000    0.0000    0.0000 O   0  0  0  0  0  0  0  0  0  0  0  0
    0.0000    0.0000    0.0000 C   0  0  0  0  0  0  0  0  0  0  0  0
    0.0000    0.0000    0.0000 O   0  0  0  0  0  0  0  0  0  0  0  0
    0.0000    0.0000    0.0000 O   0  0  0  0  0  0  0  0  0  0  0  0
    0.0000    0.0000    0.0000 C   0  0  0  0  0  0  0  0  0  0  0  0
    0.0000    0.0000    0.0000 F   0  0  0  0  0  0  0  0  0  0  0  0
    0.0000    0.0000    0.0000 C   0  0  0  0  0  0  0  0  0  0  0  0
  1  2  1  0
  2  3  1  0
  3  4  1  0
  4  5  1  0
  5  6  2  0
  6  7  1  0
  6  8  1  0
  8  9  1  0
  9 10  2  0
  9 11  1  0
 11 12  1  0
 12 13  1  0
 13 14  1  0
 14 15  2  0
 15 16  1  0
 16 17  2  0
 17 18  1  0
 18 19  2  0
 18 20  1  0
 20 21  1  0
 21 22  1  0
 22 23  1  0
 23 24  1  0
 24 25  2  0
 24 26  1  0
 21 27  1  0
 27 28  2  0
 27 29  1  0
 17 30  1  0
 30 31  1  0
 30 32  2  0
 12  2  2  0
 11  4  2  0
 32 14  1  0
M  END
>  <pIC50>  (312) 
5.68

>  <ChEMBL_ID>  (312) 
CHEMBL388340

>  <document_journal>  (312) 
J. Med. Chem.

>  <bao_endpoint>  (312) 
BAO_0000190

>  <potential_duplicate>  (312) 
False

>  <uo_units>  (312) 
UO_0000065

>  <canonical_smiles>  (312) 
Cc1[nH]c2N=C(N)NC(=O)c2c1Sc3ccc(C(=O)N[C@@H](CCC(=O)O)C(=O)O)c(F)c3

>  <parent_molecule_chembl_id>  (312) 
CHEMBL388340

>  <assay_type>  (312) 
B

>  <src_id>  (312) 
1

>  <ligand_efficiency>  (312) 
{u'le': u'0.24', u'bei': u'12.25', u'sei': u'2.67', u'lle': u'4.5'}

>  <standard_flag>  (312) 
True

>  <molecule_chembl_id>  (312) 
CHEMBL388340

>  <target_organism>  (312) 
Homo sapiens

>  <standard_units>  (312) 
nM

>  <record_id>  (312) 
630604

>  <document_chembl_id>  (312) 
CHEMBL1149301

>  <bao_format>  (312) 
BAO_0000357

>  <data_validity_description>  (312) 
None

>  <activity_id>  (312) 
1842437

>  <standard_type>  (312) 
IC50

>  <target_chembl_id>  (312) 
CHEMBL202

>  <data_validity_comment>  (312) 
None

>  <published_value>  (312) 
2.1

>  <document_year>  (312) 
2004

>  <target_pref_name>  (312) 
Dihydrofolate reductase

>  <assay_chembl_id>  (312) 
CHEMBL916823

>  <standard_relation>  (312) 
=

>  <assay_description>  (312) 
Inhibition of human DHFR

>  <published_relation>  (312) 
=

>  <standard_value>  (312) 
2100

>  <qudt_units>  (312) 
http://www.openphacts.org/units/Nanomolar

>  <target_tax_id>  (312) 
9606

>  <bao_label>  (312) 
single protein format

>  <published_units>  (312) 
uM

>  <pchembl_value>  (312) 
5.68

>  <published_type>  (312) 
IC50

>  <activity_comment>  (312) 
None

$$$$

     RDKit          

 31 33  0  0  0  0  0  0  0  0999 V2000
    0.0000    0.0000    0.0000 C   0  0  0  0  0  0  0  0  0  0  0  0
    0.0000    0.0000    0.0000 C   0  0  0  0  0  0  0  0  0  0  0  0
    0.0000    0.0000    0.0000 C   0  0  0  0  0  0  0  0  0  0  0  0
    0.0000    0.0000    0.0000 S   0  0  0  0  0  0  0  0  0  0  0  0
    0.0000    0.0000    0.0000 C   0  0  0  0  0  0  0  0  0  0  0  0
    0.0000    0.0000    0.0000 C   0  0  0  0  0  0  0  0  0  0  0  0
    0.0000    0.0000    0.0000 C   0  0  0  0  0  0  0  0  0  0  0  0
    0.0000    0.0000    0.0000 C   0  0  0  0  0  0  0  0  0  0  0  0
    0.0000    0.0000    0.0000 C   0  0  0  0  0  0  0  0  0  0  0  0
    0.0000    0.0000    0.0000 C   0  0  0  0  0  0  0  0  0  0  0  0
    0.0000    0.0000    0.0000 C   0  0  0  0  0  0  0  0  0  0  0  0
    0.0000    0.0000    0.0000 O   0  0  0  0  0  0  0  0  0  0  0  0
    0.0000    0.0000    0.0000 N   0  0  0  0  0  0  0  0  0  0  0  0
    0.0000    0.0000    0.0000 C   0  0  0  0  0  0  0  0  0  0  0  0
    0.0000    0.0000    0.0000 C   0  0  0  0  0  0  0  0  0  0  0  0
    0.0000    0.0000    0.0000 C   0  0  0  0  0  0  0  0  0  0  0  0
    0.0000    0.0000    0.0000 C   0  0  0  0  0  0  0  0  0  0  0  0
    0.0000    0.0000    0.0000 O   0  0  0  0  0  0  0  0  0  0  0  0
    0.0000    0.0000    0.0000 O   0  0  0  0  0  0  0  0  0  0  0  0
    0.0000    0.0000    0.0000 C   0  0  0  0  0  0  0  0  0  0  0  0
    0.0000    0.0000    0.0000 O   0  0  0  0  0  0  0  0  0  0  0  0
    0.0000    0.0000    0.0000 O   0  0  0  0  0  0  0  0  0  0  0  0
    0.0000    0.0000    0.0000 N   0  0  0  0  0  0  0  0  0  0  0  0
    0.0000    0.0000    0.0000 C   0  0  0  0  0  0  0  0  0  0  0  0
    0.0000    0.0000    0.0000 N   0  0  0  0  0  0  0  0  0  0  0  0
    0.0000    0.0000    0.0000 C   0  0  0  0  0  0  0  0  0  0  0  0
    0.0000    0.0000    0.0000 N   0  0  0  0  0  0  0  0  0  0  0  0
    0.0000    0.0000    0.0000 N   0  0  0  0  0  0  0  0  0  0  0  0
    0.0000    0.0000    0.0000 C   0  0  0  0  0  0  0  0  0  0  0  0
    0.0000    0.0000    0.0000 N   0  0  0  0  0  0  0  0  0  0  0  0
    0.0000    0.0000    0.0000 C   0  0  0  0  0  0  0  0  0  0  0  0
  1  2  1  0
  2  3  2  0
  3  4  1  0
  4  5  1  0
  5  6  2  0
  6  7  1  0
  7  8  2  0
  8  9  1  0
  9 10  2  0
  8 11  1  0
 11 12  2  0
 11 13  1  0
 13 14  1  0
 14 15  1  0
 15 16  1  0
 16 17  1  0
 17 18  2  0
 17 19  1  0
 14 20  1  0
 20 21  2  0
 20 22  1  0
  3 23  1  0
 23 24  1  0
 24 25  2  0
 25 26  1  0
 26 27  1  0
 26 28  2  0
 28 29  1  0
 29 30  1  0
 29 31  2  0
 31  2  1  0
 10  5  1  0
 31 24  1  0
M  END
>  <pIC50>  (313) 
6.68

>  <ChEMBL_ID>  (313) 
CHEMBL389643

>  <document_journal>  (313) 
J. Med. Chem.

>  <bao_endpoint>  (313) 
BAO_0000190

>  <potential_duplicate>  (313) 
False

>  <uo_units>  (313) 
UO_0000065

>  <canonical_smiles>  (313) 
Cc1c(Sc2ccc(cc2)C(=O)N[C@@H](CCC(=O)O)C(=O)O)[nH]c3nc(N)nc(N)c13

>  <parent_molecule_chembl_id>  (313) 
CHEMBL389643

>  <assay_type>  (313) 
B

>  <src_id>  (313) 
1

>  <ligand_efficiency>  (313) 
{u'le': u'0.29', u'bei': u'15.02', u'sei': u'3', u'lle': u'4.96'}

>  <standard_flag>  (313) 
True

>  <molecule_chembl_id>  (313) 
CHEMBL389643

>  <target_organism>  (313) 
Homo sapiens

>  <standard_units>  (313) 
nM

>  <record_id>  (313) 
631283

>  <document_chembl_id>  (313) 
CHEMBL1139472

>  <bao_format>  (313) 
BAO_0000357

>  <data_validity_description>  (313) 
None

>  <activity_id>  (313) 
1845026

>  <standard_type>  (313) 
IC50

>  <target_chembl_id>  (313) 
CHEMBL202

>  <data_validity_comment>  (313) 
None

>  <published_value>  (313) 
0.21

>  <document_year>  (313) 
2005

>  <target_pref_name>  (313) 
Dihydrofolate reductase

>  <assay_chembl_id>  (313) 
CHEMBL914524

>  <standard_relation>  (313) 
=

>  <assay_description>  (313) 
Inhibition of human DHFR

>  <published_relation>  (313) 
=

>  <standard_value>  (313) 
210

>  <qudt_units>  (313) 
http://www.openphacts.org/units/Nanomolar

>  <target_tax_id>  (313) 
9606

>  <bao_label>  (313) 
single protein format

>  <published_units>  (313) 
uM

>  <pchembl_value>  (313) 
6.68

>  <published_type>  (313) 
IC50

>  <activity_comment>  (313) 
None

$$$$

     RDKit          

 32 34  0  0  0  0  0  0  0  0999 V2000
    0.0000    0.0000    0.0000 N   0  0  0  0  0  0  0  0  0  0  0  0
    0.0000    0.0000    0.0000 C   0  0  0  0  0  0  0  0  0  0  0  0
    0.0000    0.0000    0.0000 N   0  0  0  0  0  0  0  0  0  0  0  0
    0.0000    0.0000    0.0000 C   0  0  0  0  0  0  0  0  0  0  0  0
    0.0000    0.0000    0.0000 O   0  0  0  0  0  0  0  0  0  0  0  0
    0.0000    0.0000    0.0000 C   0  0  0  0  0  0  0  0  0  0  0  0
    0.0000    0.0000    0.0000 C   0  0  0  0  0  0  0  0  0  0  0  0
    0.0000    0.0000    0.0000 C   0  0  0  0  0  0  0  0  0  0  0  0
    0.0000    0.0000    0.0000 C   0  0  0  0  0  0  0  0  0  0  0  0
    0.0000    0.0000    0.0000 C   0  0  0  0  0  0  0  0  0  0  0  0
    0.0000    0.0000    0.0000 C   0  0  0  0  0  0  0  0  0  0  0  0
    0.0000    0.0000    0.0000 C   0  0  0  0  0  0  0  0  0  0  0  0
    0.0000    0.0000    0.0000 N   0  0  0  0  0  0  0  0  0  0  0  0
    0.0000    0.0000    0.0000 C   0  0  0  0  0  0  0  0  0  0  0  0
    0.0000    0.0000    0.0000 C   0  0  0  0  0  0  0  0  0  0  0  0
    0.0000    0.0000    0.0000 C   0  0  0  0  0  0  0  0  0  0  0  0
    0.0000    0.0000    0.0000 S   0  0  0  0  0  0  0  0  0  0  0  0
    0.0000    0.0000    0.0000 C   0  0  0  0  0  0  0  0  0  0  0  0
    0.0000    0.0000    0.0000 C   0  0  0  0  0  0  0  0  0  0  0  0
    0.0000    0.0000    0.0000 C   0  0  0  0  0  0  0  0  0  0  0  0
    0.0000    0.0000    0.0000 O   0  0  0  0  0  0  0  0  0  0  0  0
    0.0000    0.0000    0.0000 N   0  0  0  0  0  0  0  0  0  0  0  0
    0.0000    0.0000    0.0000 C   0  0  0  0  0  0  0  0  0  0  0  0
    0.0000    0.0000    0.0000 C   0  0  0  0  0  0  0  0  0  0  0  0
    0.0000    0.0000    0.0000 C   0  0  0  0  0  0  0  0  0  0  0  0
    0.0000    0.0000    0.0000 C   0  0  0  0  0  0  0  0  0  0  0  0
    0.0000    0.0000    0.0000 O   0  0  0  0  0  0  0  0  0  0  0  0
    0.0000    0.0000    0.0000 O   0  0  0  0  0  0  0  0  0  0  0  0
    0.0000    0.0000    0.0000 C   0  0  0  0  0  0  0  0  0  0  0  0
    0.0000    0.0000    0.0000 O   0  0  0  0  0  0  0  0  0  0  0  0
    0.0000    0.0000    0.0000 O   0  0  0  0  0  0  0  0  0  0  0  0
    0.0000    0.0000    0.0000 C   0  0  0  0  0  0  0  0  0  0  0  0
  1  2  2  0
  2  3  1  0
  3  4  1  0
  4  5  2  0
  6  1  1  0
  7  6  2  0
  8  6  1  0
  9  7  1  0
  4  8  1  0
  8 10  2  0
 11  9  2  0
 10 11  1  0
 12 11  1  0
 13 12  1  0
 14 13  1  0
 13 15  1  0
 15 16  2  0
 17 15  1  0
 16 18  1  0
 19 17  1  0
 18 19  2  0
 19 20  1  0
 20 21  2  0
 20 22  1  0
 22 23  1  0
 23 24  1  0
 23 25  1  0
 24 26  1  0
 25 27  2  0
 25 28  1  0
 26 29  1  0
 29 30  2  0
 29 31  1  0
  2 32  1  0
M  END
>  <pIC50>  (314) 
4.68

>  <ChEMBL_ID>  (314) 
CHEMBL225071

>  <document_journal>  (314) 
J. Med. Chem.

>  <bao_endpoint>  (314) 
BAO_0000190

>  <potential_duplicate>  (314) 
False

>  <uo_units>  (314) 
UO_0000065

>  <canonical_smiles>  (314) 
CN(Cc1ccc2NC(=NC(=O)c2c1)C)c3ccc(s3)C(=O)N[C@@H](CCC(=O)O)C(=O)O

>  <parent_molecule_chembl_id>  (314) 
CHEMBL225071

>  <assay_type>  (314) 
B

>  <src_id>  (314) 
1

>  <ligand_efficiency>  (314) 
{u'le': u'0.2', u'bei': u'10.2', u'sei': u'2.65', u'lle': u'3.15'}

>  <standard_flag>  (314) 
True

>  <molecule_chembl_id>  (314) 
CHEMBL225071

>  <target_organism>  (314) 
Homo sapiens

>  <standard_units>  (314) 
nM

>  <record_id>  (314) 
631287

>  <document_chembl_id>  (314) 
CHEMBL1139472

>  <bao_format>  (314) 
BAO_0000357

>  <data_validity_description>  (314) 
None

>  <activity_id>  (314) 
1845031

>  <standard_type>  (314) 
IC50

>  <target_chembl_id>  (314) 
CHEMBL202

>  <data_validity_comment>  (314) 
None

>  <published_value>  (314) 
21

>  <document_year>  (314) 
2005

>  <target_pref_name>  (314) 
Dihydrofolate reductase

>  <assay_chembl_id>  (314) 
CHEMBL914524

>  <standard_relation>  (314) 
=

>  <assay_description>  (314) 
Inhibition of human DHFR

>  <published_relation>  (314) 
=

>  <standard_value>  (314) 
21000

>  <qudt_units>  (314) 
http://www.openphacts.org/units/Nanomolar

>  <target_tax_id>  (314) 
9606

>  <bao_label>  (314) 
single protein format

>  <published_units>  (314) 
uM

>  <pchembl_value>  (314) 
4.68

>  <published_type>  (314) 
IC50

>  <activity_comment>  (314) 
None

$$$$

     RDKit          

 22 24  0  0  0  0  0  0  0  0999 V2000
    0.0000    0.0000    0.0000 C   0  0  0  0  0  0  0  0  0  0  0  0
    0.0000    0.0000    0.0000 C   0  0  0  0  0  0  0  0  0  0  0  0
    0.0000    0.0000    0.0000 C   0  0  0  0  0  0  0  0  0  0  0  0
    0.0000    0.0000    0.0000 C   0  0  0  0  0  0  0  0  0  0  0  0
    0.0000    0.0000    0.0000 S   0  0  0  0  0  0  0  0  0  0  0  0
    0.0000    0.0000    0.0000 C   0  0  0  0  0  0  0  0  0  0  0  0
    0.0000    0.0000    0.0000 C   0  0  0  0  0  0  0  0  0  0  0  0
    0.0000    0.0000    0.0000 C   0  0  0  0  0  0  0  0  0  0  0  0
    0.0000    0.0000    0.0000 C   0  0  0  0  0  0  0  0  0  0  0  0
    0.0000    0.0000    0.0000 C   0  0  0  0  0  0  0  0  0  0  0  0
    0.0000    0.0000    0.0000 C   0  0  0  0  0  0  0  0  0  0  0  0
    0.0000    0.0000    0.0000 C   0  0  0  0  0  0  0  0  0  0  0  0
    0.0000    0.0000    0.0000 C   0  0  0  0  0  0  0  0  0  0  0  0
    0.0000    0.0000    0.0000 N   0  0  0  0  0  0  0  0  0  0  0  0
    0.0000    0.0000    0.0000 C   0  0  0  0  0  0  0  0  0  0  0  0
    0.0000    0.0000    0.0000 N   0  0  0  0  0  0  0  0  0  0  0  0
    0.0000    0.0000    0.0000 C   0  0  0  0  0  0  0  0  0  0  0  0
    0.0000    0.0000    0.0000 N   0  0  0  0  0  0  0  0  0  0  0  0
    0.0000    0.0000    0.0000 N   0  0  0  0  0  0  0  0  0  0  0  0
    0.0000    0.0000    0.0000 C   0  0  0  0  0  0  0  0  0  0  0  0
    0.0000    0.0000    0.0000 N   0  0  0  0  0  0  0  0  0  0  0  0
    0.0000    0.0000    0.0000 C   0  0  0  0  0  0  0  0  0  0  0  0
  1  2  1  0
  2  3  1  0
  3  4  2  0
  4  5  1  0
  5  6  1  0
  6  7  2  0
  7  8  1  0
  7  9  1  0
  9 10  2  0
 10 11  1  0
 11 12  2  0
 12 13  1  0
  4 14  1  0
 14 15  1  0
 15 16  2  0
 16 17  1  0
 17 18  1  0
 17 19  2  0
 19 20  1  0
 20 21  1  0
 20 22  2  0
 22  3  1  0
 12  6  1  0
 22 15  1  0
M  END
>  <pIC50>  (315) 
4.5

>  <ChEMBL_ID>  (315) 
CHEMBL227064

>  <document_journal>  (315) 
J. Med. Chem.

>  <bao_endpoint>  (315) 
BAO_0000190

>  <potential_duplicate>  (315) 
False

>  <uo_units>  (315) 
UO_0000065

>  <canonical_smiles>  (315) 
CCc1c(Sc2c(C)cccc2C)[nH]c3nc(N)nc(N)c13

>  <parent_molecule_chembl_id>  (315) 
CHEMBL227064

>  <assay_type>  (315) 
B

>  <src_id>  (315) 
1

>  <ligand_efficiency>  (315) 
{u'le': u'0.28', u'bei': u'14.34', u'sei': u'3.78', u'lle': u'0.22'}

>  <standard_flag>  (315) 
True

>  <molecule_chembl_id>  (315) 
CHEMBL227064

>  <target_organism>  (315) 
Homo sapiens

>  <standard_units>  (315) 
nM

>  <record_id>  (315) 
643827

>  <document_chembl_id>  (315) 
CHEMBL1145401

>  <bao_format>  (315) 
BAO_0000357

>  <data_validity_description>  (315) 
None

>  <activity_id>  (315) 
1904671

>  <standard_type>  (315) 
IC50

>  <target_chembl_id>  (315) 
CHEMBL202

>  <data_validity_comment>  (315) 
None

>  <published_value>  (315) 
32

>  <document_year>  (315) 
2007

>  <target_pref_name>  (315) 
Dihydrofolate reductase

>  <assay_chembl_id>  (315) 
CHEMBL889604

>  <standard_relation>  (315) 
=

>  <assay_description>  (315) 
Inhibition of human DHFR

>  <published_relation>  (315) 
=

>  <standard_value>  (315) 
32000

>  <qudt_units>  (315) 
http://www.openphacts.org/units/Nanomolar

>  <target_tax_id>  (315) 
9606

>  <bao_label>  (315) 
single protein format

>  <published_units>  (315) 
uM

>  <pchembl_value>  (315) 
4.5

>  <published_type>  (315) 
IC50

>  <activity_comment>  (315) 
None

$$$$

     RDKit          

 24 27  0  0  0  0  0  0  0  0999 V2000
    0.0000    0.0000    0.0000 C   0  0  0  0  0  0  0  0  0  0  0  0
    0.0000    0.0000    0.0000 C   0  0  0  0  0  0  0  0  0  0  0  0
    0.0000    0.0000    0.0000 C   0  0  0  0  0  0  0  0  0  0  0  0
    0.0000    0.0000    0.0000 C   0  0  0  0  0  0  0  0  0  0  0  0
    0.0000    0.0000    0.0000 S   0  0  0  0  0  0  0  0  0  0  0  0
    0.0000    0.0000    0.0000 C   0  0  0  0  0  0  0  0  0  0  0  0
    0.0000    0.0000    0.0000 C   0  0  0  0  0  0  0  0  0  0  0  0
    0.0000    0.0000    0.0000 C   0  0  0  0  0  0  0  0  0  0  0  0
    0.0000    0.0000    0.0000 C   0  0  0  0  0  0  0  0  0  0  0  0
    0.0000    0.0000    0.0000 C   0  0  0  0  0  0  0  0  0  0  0  0
    0.0000    0.0000    0.0000 C   0  0  0  0  0  0  0  0  0  0  0  0
    0.0000    0.0000    0.0000 C   0  0  0  0  0  0  0  0  0  0  0  0
    0.0000    0.0000    0.0000 C   0  0  0  0  0  0  0  0  0  0  0  0
    0.0000    0.0000    0.0000 N   0  0  0  0  0  0  0  0  0  0  0  0
    0.0000    0.0000    0.0000 C   0  0  0  0  0  0  0  0  0  0  0  0
    0.0000    0.0000    0.0000 N   0  0  0  0  0  0  0  0  0  0  0  0
    0.0000    0.0000    0.0000 C   0  0  0  0  0  0  0  0  0  0  0  0
    0.0000    0.0000    0.0000 N   0  0  0  0  0  0  0  0  0  0  0  0
    0.0000    0.0000    0.0000 C   0  0  0  0  0  0  0  0  0  0  0  0
    0.0000    0.0000    0.0000 N   0  0  0  0  0  0  0  0  0  0  0  0
    0.0000    0.0000    0.0000 N   0  0  0  0  0  0  0  0  0  0  0  0
    0.0000    0.0000    0.0000 C   0  0  0  0  0  0  0  0  0  0  0  0
    0.0000    0.0000    0.0000 N   0  0  0  0  0  0  0  0  0  0  0  0
    0.0000    0.0000    0.0000 C   0  0  0  0  0  0  0  0  0  0  0  0
  1  2  1  0
  2  3  1  0
  3  4  2  0
  4  5  1  0
  5  6  1  0
  6  7  2  0
  7  8  1  0
  8  9  2  0
  9 10  1  0
 10 11  2  0
 11 12  1  0
 12 13  2  0
 13 14  1  0
 14 15  2  0
  4 16  1  0
 16 17  1  0
 17 18  2  0
 18 19  1  0
 19 20  1  0
 19 21  2  0
 21 22  1  0
 22 23  1  0
 22 24  2  0
 24  3  1  0
 15  6  1  0
 15 10  1  0
 24 17  1  0
M  END
>  <pIC50>  (316) 
5.85

>  <ChEMBL_ID>  (316) 
CHEMBL227063

>  <document_journal>  (316) 
J. Med. Chem.

>  <bao_endpoint>  (316) 
BAO_0000190

>  <potential_duplicate>  (316) 
False

>  <uo_units>  (316) 
UO_0000065

>  <canonical_smiles>  (316) 
CCc1c(Sc2cccc3cccnc23)[nH]c4nc(N)nc(N)c14

>  <parent_molecule_chembl_id>  (316) 
CHEMBL227063

>  <assay_type>  (316) 
B

>  <src_id>  (316) 
1

>  <ligand_efficiency>  (316) 
{u'le': u'0.33', u'bei': u'17.4', u'sei': u'4.44', u'lle': u'2.37'}

>  <standard_flag>  (316) 
True

>  <molecule_chembl_id>  (316) 
CHEMBL227063

>  <target_organism>  (316) 
Homo sapiens

>  <standard_units>  (316) 
nM

>  <record_id>  (316) 
643826

>  <document_chembl_id>  (316) 
CHEMBL1145401

>  <bao_format>  (316) 
BAO_0000357

>  <data_validity_description>  (316) 
None

>  <activity_id>  (316) 
1904672

>  <standard_type>  (316) 
IC50

>  <target_chembl_id>  (316) 
CHEMBL202

>  <data_validity_comment>  (316) 
None

>  <published_value>  (316) 
1.4

>  <document_year>  (316) 
2007

>  <target_pref_name>  (316) 
Dihydrofolate reductase

>  <assay_chembl_id>  (316) 
CHEMBL889604

>  <standard_relation>  (316) 
=

>  <assay_description>  (316) 
Inhibition of human DHFR

>  <published_relation>  (316) 
=

>  <standard_value>  (316) 
1400

>  <qudt_units>  (316) 
http://www.openphacts.org/units/Nanomolar

>  <target_tax_id>  (316) 
9606

>  <bao_label>  (316) 
single protein format

>  <published_units>  (316) 
uM

>  <pchembl_value>  (316) 
5.85

>  <published_type>  (316) 
IC50

>  <activity_comment>  (316) 
None

$$$$

     RDKit          

 20 22  0  0  0  0  0  0  0  0999 V2000
    0.0000    0.0000    0.0000 C   0  0  0  0  0  0  0  0  0  0  0  0
    0.0000    0.0000    0.0000 C   0  0  0  0  0  0  0  0  0  0  0  0
    0.0000    0.0000    0.0000 C   0  0  0  0  0  0  0  0  0  0  0  0
    0.0000    0.0000    0.0000 C   0  0  0  0  0  0  0  0  0  0  0  0
    0.0000    0.0000    0.0000 S   0  0  0  0  0  0  0  0  0  0  0  0
    0.0000    0.0000    0.0000 C   0  0  0  0  0  0  0  0  0  0  0  0
    0.0000    0.0000    0.0000 C   0  0  0  0  0  0  0  0  0  0  0  0
    0.0000    0.0000    0.0000 C   0  0  0  0  0  0  0  0  0  0  0  0
    0.0000    0.0000    0.0000 C   0  0  0  0  0  0  0  0  0  0  0  0
    0.0000    0.0000    0.0000 C   0  0  0  0  0  0  0  0  0  0  0  0
    0.0000    0.0000    0.0000 C   0  0  0  0  0  0  0  0  0  0  0  0
    0.0000    0.0000    0.0000 N   0  0  0  0  0  0  0  0  0  0  0  0
    0.0000    0.0000    0.0000 C   0  0  0  0  0  0  0  0  0  0  0  0
    0.0000    0.0000    0.0000 N   0  0  0  0  0  0  0  0  0  0  0  0
    0.0000    0.0000    0.0000 C   0  0  0  0  0  0  0  0  0  0  0  0
    0.0000    0.0000    0.0000 N   0  0  0  0  0  0  0  0  0  0  0  0
    0.0000    0.0000    0.0000 N   0  0  0  0  0  0  0  0  0  0  0  0
    0.0000    0.0000    0.0000 C   0  0  0  0  0  0  0  0  0  0  0  0
    0.0000    0.0000    0.0000 N   0  0  0  0  0  0  0  0  0  0  0  0
    0.0000    0.0000    0.0000 C   0  0  0  0  0  0  0  0  0  0  0  0
  1  2  1  0
  2  3  1  0
  3  4  2  0
  4  5  1  0
  5  6  1  0
  6  7  2  0
  7  8  1  0
  8  9  2  0
  9 10  1  0
 10 11  2  0
  4 12  1  0
 12 13  1  0
 13 14  2  0
 14 15  1  0
 15 16  1  0
 15 17  2  0
 17 18  1  0
 18 19  1  0
 18 20  2  0
 20  3  1  0
 11  6  1  0
 20 13  1  0
M  END
>  <pIC50>  (317) 
4.75

>  <ChEMBL_ID>  (317) 
CHEMBL389686

>  <document_journal>  (317) 
J. Med. Chem.

>  <bao_endpoint>  (317) 
BAO_0000190

>  <potential_duplicate>  (317) 
False

>  <uo_units>  (317) 
UO_0000065

>  <canonical_smiles>  (317) 
CCc1c(Sc2ccccc2)[nH]c3nc(N)nc(N)c13

>  <parent_molecule_chembl_id>  (317) 
CHEMBL389686

>  <assay_type>  (317) 
B

>  <src_id>  (317) 
1

>  <ligand_efficiency>  (317) 
{u'le': u'0.32', u'bei': u'16.63', u'sei': u'3.99', u'lle': u'1.44'}

>  <standard_flag>  (317) 
True

>  <molecule_chembl_id>  (317) 
CHEMBL389686

>  <target_organism>  (317) 
Homo sapiens

>  <standard_units>  (317) 
nM

>  <record_id>  (317) 
643825

>  <document_chembl_id>  (317) 
CHEMBL1145401

>  <bao_format>  (317) 
BAO_0000357

>  <data_validity_description>  (317) 
None

>  <activity_id>  (317) 
1904673

>  <standard_type>  (317) 
IC50

>  <target_chembl_id>  (317) 
CHEMBL202

>  <data_validity_comment>  (317) 
None

>  <published_value>  (317) 
18

>  <document_year>  (317) 
2007

>  <target_pref_name>  (317) 
Dihydrofolate reductase

>  <assay_chembl_id>  (317) 
CHEMBL889604

>  <standard_relation>  (317) 
=

>  <assay_description>  (317) 
Inhibition of human DHFR

>  <published_relation>  (317) 
=

>  <standard_value>  (317) 
18000

>  <qudt_units>  (317) 
http://www.openphacts.org/units/Nanomolar

>  <target_tax_id>  (317) 
9606

>  <bao_label>  (317) 
single protein format

>  <published_units>  (317) 
uM

>  <pchembl_value>  (317) 
4.75

>  <published_type>  (317) 
IC50

>  <activity_comment>  (317) 
None

$$$$

     RDKit          

 24 26  0  0  0  0  0  0  0  0999 V2000
    0.0000    0.0000    0.0000 C   0  0  0  0  0  0  0  0  0  0  0  0
    0.0000    0.0000    0.0000 C   0  0  0  0  0  0  0  0  0  0  0  0
    0.0000    0.0000    0.0000 C   0  0  0  0  0  0  0  0  0  0  0  0
    0.0000    0.0000    0.0000 C   0  0  0  0  0  0  0  0  0  0  0  0
    0.0000    0.0000    0.0000 S   0  0  0  0  0  0  0  0  0  0  0  0
    0.0000    0.0000    0.0000 C   0  0  0  0  0  0  0  0  0  0  0  0
    0.0000    0.0000    0.0000 C   0  0  0  0  0  0  0  0  0  0  0  0
    0.0000    0.0000    0.0000 C   0  0  0  0  0  0  0  0  0  0  0  0
    0.0000    0.0000    0.0000 O   0  0  0  0  0  0  0  0  0  0  0  0
    0.0000    0.0000    0.0000 C   0  0  0  0  0  0  0  0  0  0  0  0
    0.0000    0.0000    0.0000 C   0  0  0  0  0  0  0  0  0  0  0  0
    0.0000    0.0000    0.0000 C   0  0  0  0  0  0  0  0  0  0  0  0
    0.0000    0.0000    0.0000 C   0  0  0  0  0  0  0  0  0  0  0  0
    0.0000    0.0000    0.0000 O   0  0  0  0  0  0  0  0  0  0  0  0
    0.0000    0.0000    0.0000 C   0  0  0  0  0  0  0  0  0  0  0  0
    0.0000    0.0000    0.0000 N   0  0  0  0  0  0  0  0  0  0  0  0
    0.0000    0.0000    0.0000 C   0  0  0  0  0  0  0  0  0  0  0  0
    0.0000    0.0000    0.0000 N   0  0  0  0  0  0  0  0  0  0  0  0
    0.0000    0.0000    0.0000 C   0  0  0  0  0  0  0  0  0  0  0  0
    0.0000    0.0000    0.0000 N   0  0  0  0  0  0  0  0  0  0  0  0
    0.0000    0.0000    0.0000 N   0  0  0  0  0  0  0  0  0  0  0  0
    0.0000    0.0000    0.0000 C   0  0  0  0  0  0  0  0  0  0  0  0
    0.0000    0.0000    0.0000 N   0  0  0  0  0  0  0  0  0  0  0  0
    0.0000    0.0000    0.0000 C   0  0  0  0  0  0  0  0  0  0  0  0
  1  2  1  0
  2  3  1  0
  3  4  2  0
  4  5  1  0
  5  6  1  0
  6  7  2  0
  7  8  1  0
  8  9  1  0
  9 10  1  0
  8 11  2  0
 11 12  1  0
 12 13  2  0
 13 14  1  0
 14 15  1  0
  4 16  1  0
 16 17  1  0
 17 18  2  0
 18 19  1  0
 19 20  1  0
 19 21  2  0
 21 22  1  0
 22 23  1  0
 22 24  2  0
 24  3  1  0
 13  6  1  0
 24 17  1  0
M  END
>  <pIC50>  (318) 
5.24

>  <ChEMBL_ID>  (318) 
CHEMBL227009

>  <document_journal>  (318) 
J. Med. Chem.

>  <bao_endpoint>  (318) 
BAO_0000190

>  <potential_duplicate>  (318) 
False

>  <uo_units>  (318) 
UO_0000065

>  <canonical_smiles>  (318) 
CCc1c(Sc2cc(OC)ccc2OC)[nH]c3nc(N)nc(N)c13

>  <parent_molecule_chembl_id>  (318) 
CHEMBL227009

>  <assay_type>  (318) 
B

>  <src_id>  (318) 
1

>  <ligand_efficiency>  (318) 
{u'le': u'0.3', u'bei': u'15.16', u'sei': u'3.81', u'lle': u'1.98'}

>  <standard_flag>  (318) 
True

>  <molecule_chembl_id>  (318) 
CHEMBL227009

>  <target_organism>  (318) 
Homo sapiens

>  <standard_units>  (318) 
nM

>  <record_id>  (318) 
643823

>  <document_chembl_id>  (318) 
CHEMBL1145401

>  <bao_format>  (318) 
BAO_0000357

>  <data_validity_description>  (318) 
None

>  <activity_id>  (318) 
1904674

>  <standard_type>  (318) 
IC50

>  <target_chembl_id>  (318) 
CHEMBL202

>  <data_validity_comment>  (318) 
None

>  <published_value>  (318) 
5.8

>  <document_year>  (318) 
2007

>  <target_pref_name>  (318) 
Dihydrofolate reductase

>  <assay_chembl_id>  (318) 
CHEMBL889604

>  <standard_relation>  (318) 
=

>  <assay_description>  (318) 
Inhibition of human DHFR

>  <published_relation>  (318) 
=

>  <standard_value>  (318) 
5800

>  <qudt_units>  (318) 
http://www.openphacts.org/units/Nanomolar

>  <target_tax_id>  (318) 
9606

>  <bao_label>  (318) 
single protein format

>  <published_units>  (318) 
uM

>  <pchembl_value>  (318) 
5.24

>  <published_type>  (318) 
IC50

>  <activity_comment>  (318) 
None

$$$$

     RDKit          

 22 24  0  0  0  0  0  0  0  0999 V2000
    0.0000    0.0000    0.0000 C   0  0  0  0  0  0  0  0  0  0  0  0
    0.0000    0.0000    0.0000 C   0  0  0  0  0  0  0  0  0  0  0  0
    0.0000    0.0000    0.0000 C   0  0  0  0  0  0  0  0  0  0  0  0
    0.0000    0.0000    0.0000 C   0  0  0  0  0  0  0  0  0  0  0  0
    0.0000    0.0000    0.0000 S   0  0  0  0  0  0  0  0  0  0  0  0
    0.0000    0.0000    0.0000 C   0  0  0  0  0  0  0  0  0  0  0  0
    0.0000    0.0000    0.0000 C   0  0  0  0  0  0  0  0  0  0  0  0
    0.0000    0.0000    0.0000 C   0  0  0  0  0  0  0  0  0  0  0  0
    0.0000    0.0000    0.0000 C   0  0  0  0  0  0  0  0  0  0  0  0
    0.0000    0.0000    0.0000 O   0  0  0  0  0  0  0  0  0  0  0  0
    0.0000    0.0000    0.0000 C   0  0  0  0  0  0  0  0  0  0  0  0
    0.0000    0.0000    0.0000 C   0  0  0  0  0  0  0  0  0  0  0  0
    0.0000    0.0000    0.0000 C   0  0  0  0  0  0  0  0  0  0  0  0
    0.0000    0.0000    0.0000 N   0  0  0  0  0  0  0  0  0  0  0  0
    0.0000    0.0000    0.0000 C   0  0  0  0  0  0  0  0  0  0  0  0
    0.0000    0.0000    0.0000 N   0  0  0  0  0  0  0  0  0  0  0  0
    0.0000    0.0000    0.0000 C   0  0  0  0  0  0  0  0  0  0  0  0
    0.0000    0.0000    0.0000 N   0  0  0  0  0  0  0  0  0  0  0  0
    0.0000    0.0000    0.0000 N   0  0  0  0  0  0  0  0  0  0  0  0
    0.0000    0.0000    0.0000 C   0  0  0  0  0  0  0  0  0  0  0  0
    0.0000    0.0000    0.0000 N   0  0  0  0  0  0  0  0  0  0  0  0
    0.0000    0.0000    0.0000 C   0  0  0  0  0  0  0  0  0  0  0  0
  1  2  1  0
  2  3  1  0
  3  4  2  0
  4  5  1  0
  5  6  1  0
  6  7  2  0
  7  8  1  0
  8  9  2  0
  9 10  1  0
 10 11  1  0
  9 12  1  0
 12 13  2  0
  4 14  1  0
 14 15  1  0
 15 16  2  0
 16 17  1  0
 17 18  1  0
 17 19  2  0
 19 20  1  0
 20 21  1  0
 20 22  2  0
 22  3  1  0
 13  6  1  0
 22 15  1  0
M  END
>  <pIC50>  (319) 
5.54

>  <ChEMBL_ID>  (319) 
CHEMBL388121

>  <document_journal>  (319) 
J. Med. Chem.

>  <bao_endpoint>  (319) 
BAO_0000190

>  <potential_duplicate>  (319) 
False

>  <uo_units>  (319) 
UO_0000065

>  <canonical_smiles>  (319) 
CCc1c(Sc2ccc(OC)cc2)[nH]c3nc(N)nc(N)c13

>  <parent_molecule_chembl_id>  (319) 
CHEMBL388121

>  <assay_type>  (319) 
B

>  <src_id>  (319) 
1

>  <ligand_efficiency>  (319) 
{u'le': u'0.34', u'bei': u'17.56', u'sei': u'4.32', u'lle': u'2.26'}

>  <standard_flag>  (319) 
True

>  <molecule_chembl_id>  (319) 
CHEMBL388121

>  <target_organism>  (319) 
Homo sapiens

>  <standard_units>  (319) 
nM

>  <record_id>  (319) 
643822

>  <document_chembl_id>  (319) 
CHEMBL1145401

>  <bao_format>  (319) 
BAO_0000357

>  <data_validity_description>  (319) 
None

>  <activity_id>  (319) 
1904675

>  <standard_type>  (319) 
IC50

>  <target_chembl_id>  (319) 
CHEMBL202

>  <data_validity_comment>  (319) 
None

>  <published_value>  (319) 
2.9

>  <document_year>  (319) 
2007

>  <target_pref_name>  (319) 
Dihydrofolate reductase

>  <assay_chembl_id>  (319) 
CHEMBL889604

>  <standard_relation>  (319) 
=

>  <assay_description>  (319) 
Inhibition of human DHFR

>  <published_relation>  (319) 
=

>  <standard_value>  (319) 
2900

>  <qudt_units>  (319) 
http://www.openphacts.org/units/Nanomolar

>  <target_tax_id>  (319) 
9606

>  <bao_label>  (319) 
single protein format

>  <published_units>  (319) 
uM

>  <pchembl_value>  (319) 
5.54

>  <published_type>  (319) 
IC50

>  <activity_comment>  (319) 
None

$$$$

     RDKit          

 22 24  0  0  0  0  0  0  0  0999 V2000
    0.0000    0.0000    0.0000 C   0  0  0  0  0  0  0  0  0  0  0  0
    0.0000    0.0000    0.0000 C   0  0  0  0  0  0  0  0  0  0  0  0
    0.0000    0.0000    0.0000 C   0  0  0  0  0  0  0  0  0  0  0  0
    0.0000    0.0000    0.0000 C   0  0  0  0  0  0  0  0  0  0  0  0
    0.0000    0.0000    0.0000 S   0  0  0  0  0  0  0  0  0  0  0  0
    0.0000    0.0000    0.0000 C   0  0  0  0  0  0  0  0  0  0  0  0
    0.0000    0.0000    0.0000 C   0  0  0  0  0  0  0  0  0  0  0  0
    0.0000    0.0000    0.0000 C   0  0  0  0  0  0  0  0  0  0  0  0
    0.0000    0.0000    0.0000 C   0  0  0  0  0  0  0  0  0  0  0  0
    0.0000    0.0000    0.0000 Cl  0  0  0  0  0  0  0  0  0  0  0  0
    0.0000    0.0000    0.0000 C   0  0  0  0  0  0  0  0  0  0  0  0
    0.0000    0.0000    0.0000 C   0  0  0  0  0  0  0  0  0  0  0  0
    0.0000    0.0000    0.0000 Cl  0  0  0  0  0  0  0  0  0  0  0  0
    0.0000    0.0000    0.0000 N   0  0  0  0  0  0  0  0  0  0  0  0
    0.0000    0.0000    0.0000 C   0  0  0  0  0  0  0  0  0  0  0  0
    0.0000    0.0000    0.0000 N   0  0  0  0  0  0  0  0  0  0  0  0
    0.0000    0.0000    0.0000 C   0  0  0  0  0  0  0  0  0  0  0  0
    0.0000    0.0000    0.0000 N   0  0  0  0  0  0  0  0  0  0  0  0
    0.0000    0.0000    0.0000 N   0  0  0  0  0  0  0  0  0  0  0  0
    0.0000    0.0000    0.0000 C   0  0  0  0  0  0  0  0  0  0  0  0
    0.0000    0.0000    0.0000 N   0  0  0  0  0  0  0  0  0  0  0  0
    0.0000    0.0000    0.0000 C   0  0  0  0  0  0  0  0  0  0  0  0
  1  2  1  0
  2  3  1  0
  3  4  2  0
  4  5  1  0
  5  6  1  0
  6  7  2  0
  7  8  1  0
  8  9  2  0
  9 10  1  0
  9 11  1  0
 11 12  2  0
 12 13  1  0
  4 14  1  0
 14 15  1  0
 15 16  2  0
 16 17  1  0
 17 18  1  0
 17 19  2  0
 19 20  1  0
 20 21  1  0
 20 22  2  0
 22  3  1  0
 12  6  1  0
 22 15  1  0
M  END
>  <pIC50>  (320) 
5.85

>  <ChEMBL_ID>  (320) 
CHEMBL388120

>  <document_journal>  (320) 
J. Med. Chem.

>  <bao_endpoint>  (320) 
BAO_0000190

>  <potential_duplicate>  (320) 
False

>  <uo_units>  (320) 
UO_0000065

>  <canonical_smiles>  (320) 
CCc1c(Sc2ccc(Cl)cc2Cl)[nH]c3nc(N)nc(N)c13

>  <parent_molecule_chembl_id>  (320) 
CHEMBL388120

>  <assay_type>  (320) 
B

>  <src_id>  (320) 
1

>  <ligand_efficiency>  (320) 
{u'le': u'0.36', u'bei': u'16.52', u'sei': u'4.92', u'lle': u'1.23'}

>  <standard_flag>  (320) 
True

>  <molecule_chembl_id>  (320) 
CHEMBL388120

>  <target_organism>  (320) 
Homo sapiens

>  <standard_units>  (320) 
nM

>  <record_id>  (320) 
643820

>  <document_chembl_id>  (320) 
CHEMBL1145401

>  <bao_format>  (320) 
BAO_0000357

>  <data_validity_description>  (320) 
None

>  <activity_id>  (320) 
1904676

>  <standard_type>  (320) 
IC50

>  <target_chembl_id>  (320) 
CHEMBL202

>  <data_validity_comment>  (320) 
None

>  <published_value>  (320) 
1.4

>  <document_year>  (320) 
2007

>  <target_pref_name>  (320) 
Dihydrofolate reductase

>  <assay_chembl_id>  (320) 
CHEMBL889604

>  <standard_relation>  (320) 
=

>  <assay_description>  (320) 
Inhibition of human DHFR

>  <published_relation>  (320) 
=

>  <standard_value>  (320) 
1400

>  <qudt_units>  (320) 
http://www.openphacts.org/units/Nanomolar

>  <target_tax_id>  (320) 
9606

>  <bao_label>  (320) 
single protein format

>  <published_units>  (320) 
uM

>  <pchembl_value>  (320) 
5.85

>  <published_type>  (320) 
IC50

>  <activity_comment>  (320) 
None

$$$$

     RDKit          

 22 24  0  0  0  0  0  0  0  0999 V2000
    0.0000    0.0000    0.0000 C   0  0  0  0  0  0  0  0  0  0  0  0
    0.0000    0.0000    0.0000 C   0  0  0  0  0  0  0  0  0  0  0  0
    0.0000    0.0000    0.0000 C   0  0  0  0  0  0  0  0  0  0  0  0
    0.0000    0.0000    0.0000 C   0  0  0  0  0  0  0  0  0  0  0  0
    0.0000    0.0000    0.0000 S   0  0  0  0  0  0  0  0  0  0  0  0
    0.0000    0.0000    0.0000 C   0  0  0  0  0  0  0  0  0  0  0  0
    0.0000    0.0000    0.0000 C   0  0  0  0  0  0  0  0  0  0  0  0
    0.0000    0.0000    0.0000 C   0  0  0  0  0  0  0  0  0  0  0  0
    0.0000    0.0000    0.0000 C   0  0  0  0  0  0  0  0  0  0  0  0
    0.0000    0.0000    0.0000 Cl  0  0  0  0  0  0  0  0  0  0  0  0
    0.0000    0.0000    0.0000 C   0  0  0  0  0  0  0  0  0  0  0  0
    0.0000    0.0000    0.0000 Cl  0  0  0  0  0  0  0  0  0  0  0  0
    0.0000    0.0000    0.0000 C   0  0  0  0  0  0  0  0  0  0  0  0
    0.0000    0.0000    0.0000 N   0  0  0  0  0  0  0  0  0  0  0  0
    0.0000    0.0000    0.0000 C   0  0  0  0  0  0  0  0  0  0  0  0
    0.0000    0.0000    0.0000 N   0  0  0  0  0  0  0  0  0  0  0  0
    0.0000    0.0000    0.0000 C   0  0  0  0  0  0  0  0  0  0  0  0
    0.0000    0.0000    0.0000 C   0  0  0  0  0  0  0  0  0  0  0  0
    0.0000    0.0000    0.0000 N   0  0  0  0  0  0  0  0  0  0  0  0
    0.0000    0.0000    0.0000 C   0  0  0  0  0  0  0  0  0  0  0  0
    0.0000    0.0000    0.0000 N   0  0  0  0  0  0  0  0  0  0  0  0
    0.0000    0.0000    0.0000 C   0  0  0  0  0  0  0  0  0  0  0  0
  1  2  1  0
  2  3  1  0
  3  4  2  0
  4  5  1  0
  5  6  1  0
  6  7  2  0
  7  8  1  0
  8  9  2  0
  9 10  1  0
  9 11  1  0
 11 12  1  0
 11 13  2  0
  4 14  1  0
 14 15  1  0
 15 16  2  0
 16 17  1  0
 17 18  1  0
 17 19  2  0
 19 20  1  0
 20 21  1  0
 20 22  2  0
 22  3  1  0
 13  6  1  0
 22 15  1  0
M  END
>  <pIC50>  (321) 
5.55

>  <ChEMBL_ID>  (321) 
CHEMBL227007

>  <document_journal>  (321) 
J. Med. Chem.

>  <bao_endpoint>  (321) 
BAO_0000190

>  <potential_duplicate>  (321) 
False

>  <uo_units>  (321) 
UO_0000065

>  <canonical_smiles>  (321) 
CCc1c(Sc2ccc(Cl)c(Cl)c2)[nH]c3nc(C)nc(N)c13

>  <parent_molecule_chembl_id>  (321) 
CHEMBL227007

>  <assay_type>  (321) 
B

>  <src_id>  (321) 
1

>  <ligand_efficiency>  (321) 
{u'le': u'0.34', u'bei': u'15.72', u'sei': u'5.98', u'lle': u'0.74'}

>  <standard_flag>  (321) 
True

>  <molecule_chembl_id>  (321) 
CHEMBL227007

>  <target_organism>  (321) 
Homo sapiens

>  <standard_units>  (321) 
nM

>  <record_id>  (321) 
643819

>  <document_chembl_id>  (321) 
CHEMBL1145401

>  <bao_format>  (321) 
BAO_0000357

>  <data_validity_description>  (321) 
None

>  <activity_id>  (321) 
1904677

>  <standard_type>  (321) 
IC50

>  <target_chembl_id>  (321) 
CHEMBL202

>  <data_validity_comment>  (321) 
None

>  <published_value>  (321) 
2.8

>  <document_year>  (321) 
2007

>  <target_pref_name>  (321) 
Dihydrofolate reductase

>  <assay_chembl_id>  (321) 
CHEMBL889604

>  <standard_relation>  (321) 
=

>  <assay_description>  (321) 
Inhibition of human DHFR

>  <published_relation>  (321) 
=

>  <standard_value>  (321) 
2800

>  <qudt_units>  (321) 
http://www.openphacts.org/units/Nanomolar

>  <target_tax_id>  (321) 
9606

>  <bao_label>  (321) 
single protein format

>  <published_units>  (321) 
uM

>  <pchembl_value>  (321) 
5.55

>  <published_type>  (321) 
IC50

>  <activity_comment>  (321) 
None

$$$$

     RDKit          

 21 23  0  0  0  0  0  0  0  0999 V2000
    0.0000    0.0000    0.0000 C   0  0  0  0  0  0  0  0  0  0  0  0
    0.0000    0.0000    0.0000 C   0  0  0  0  0  0  0  0  0  0  0  0
    0.0000    0.0000    0.0000 C   0  0  0  0  0  0  0  0  0  0  0  0
    0.0000    0.0000    0.0000 C   0  0  0  0  0  0  0  0  0  0  0  0
    0.0000    0.0000    0.0000 S   0  0  0  0  0  0  0  0  0  0  0  0
    0.0000    0.0000    0.0000 C   0  0  0  0  0  0  0  0  0  0  0  0
    0.0000    0.0000    0.0000 C   0  0  0  0  0  0  0  0  0  0  0  0
    0.0000    0.0000    0.0000 C   0  0  0  0  0  0  0  0  0  0  0  0
    0.0000    0.0000    0.0000 C   0  0  0  0  0  0  0  0  0  0  0  0
    0.0000    0.0000    0.0000 Br  0  0  0  0  0  0  0  0  0  0  0  0
    0.0000    0.0000    0.0000 C   0  0  0  0  0  0  0  0  0  0  0  0
    0.0000    0.0000    0.0000 C   0  0  0  0  0  0  0  0  0  0  0  0
    0.0000    0.0000    0.0000 N   0  0  0  0  0  0  0  0  0  0  0  0
    0.0000    0.0000    0.0000 C   0  0  0  0  0  0  0  0  0  0  0  0
    0.0000    0.0000    0.0000 N   0  0  0  0  0  0  0  0  0  0  0  0
    0.0000    0.0000    0.0000 C   0  0  0  0  0  0  0  0  0  0  0  0
    0.0000    0.0000    0.0000 N   0  0  0  0  0  0  0  0  0  0  0  0
    0.0000    0.0000    0.0000 N   0  0  0  0  0  0  0  0  0  0  0  0
    0.0000    0.0000    0.0000 C   0  0  0  0  0  0  0  0  0  0  0  0
    0.0000    0.0000    0.0000 N   0  0  0  0  0  0  0  0  0  0  0  0
    0.0000    0.0000    0.0000 C   0  0  0  0  0  0  0  0  0  0  0  0
  1  2  1  0
  2  3  1  0
  3  4  2  0
  4  5  1  0
  5  6  1  0
  6  7  2  0
  7  8  1  0
  8  9  2  0
  9 10  1  0
  9 11  1  0
 11 12  2  0
  4 13  1  0
 13 14  1  0
 14 15  2  0
 15 16  1  0
 16 17  1  0
 16 18  2  0
 18 19  1  0
 19 20  1  0
 19 21  2  0
 21  3  1  0
 12  6  1  0
 21 14  1  0
M  END
>  <pIC50>  (322) 
5.57

>  <ChEMBL_ID>  (322) 
CHEMBL226954

>  <document_journal>  (322) 
J. Med. Chem.

>  <bao_endpoint>  (322) 
BAO_0000190

>  <potential_duplicate>  (322) 
False

>  <uo_units>  (322) 
UO_0000065

>  <canonical_smiles>  (322) 
CCc1c(Sc2ccc(Br)cc2)[nH]c3nc(N)nc(N)c13

>  <parent_molecule_chembl_id>  (322) 
CHEMBL226954

>  <assay_type>  (322) 
B

>  <src_id>  (322) 
1

>  <ligand_efficiency>  (322) 
{u'le': u'0.36', u'bei': u'15.29', u'sei': u'4.68', u'lle': u'1.53'}

>  <standard_flag>  (322) 
True

>  <molecule_chembl_id>  (322) 
CHEMBL226954

>  <target_organism>  (322) 
Homo sapiens

>  <standard_units>  (322) 
nM

>  <record_id>  (322) 
643816

>  <document_chembl_id>  (322) 
CHEMBL1145401

>  <bao_format>  (322) 
BAO_0000357

>  <data_validity_description>  (322) 
None

>  <activity_id>  (322) 
1904678

>  <standard_type>  (322) 
IC50

>  <target_chembl_id>  (322) 
CHEMBL202

>  <data_validity_comment>  (322) 
None

>  <published_value>  (322) 
2.7

>  <document_year>  (322) 
2007

>  <target_pref_name>  (322) 
Dihydrofolate reductase

>  <assay_chembl_id>  (322) 
CHEMBL889604

>  <standard_relation>  (322) 
=

>  <assay_description>  (322) 
Inhibition of human DHFR

>  <published_relation>  (322) 
=

>  <standard_value>  (322) 
2700

>  <qudt_units>  (322) 
http://www.openphacts.org/units/Nanomolar

>  <target_tax_id>  (322) 
9606

>  <bao_label>  (322) 
single protein format

>  <published_units>  (322) 
uM

>  <pchembl_value>  (322) 
5.57

>  <published_type>  (322) 
IC50

>  <activity_comment>  (322) 
None

$$$$

     RDKit          

 23 25  0  0  0  0  0  0  0  0999 V2000
    0.0000    0.0000    0.0000 C   0  0  0  0  0  0  0  0  0  0  0  0
    0.0000    0.0000    0.0000 C   0  0  0  0  0  0  0  0  0  0  0  0
    0.0000    0.0000    0.0000 C   0  0  0  0  0  0  0  0  0  0  0  0
    0.0000    0.0000    0.0000 C   0  0  0  0  0  0  0  0  0  0  0  0
    0.0000    0.0000    0.0000 S   0  0  0  0  0  0  0  0  0  0  0  0
    0.0000    0.0000    0.0000 C   0  0  0  0  0  0  0  0  0  0  0  0
    0.0000    0.0000    0.0000 C   0  0  0  0  0  0  0  0  0  0  0  0
    0.0000    0.0000    0.0000 C   0  0  0  0  0  0  0  0  0  0  0  0
    0.0000    0.0000    0.0000 C   0  0  0  0  0  0  0  0  0  0  0  0
    0.0000    0.0000    0.0000 C   0  0  0  0  0  0  0  0  0  0  0  0
    0.0000    0.0000    0.0000 C   0  0  0  0  0  0  0  0  0  0  0  0
    0.0000    0.0000    0.0000 N   0  0  0  0  0  0  0  0  0  0  0  0
    0.0000    0.0000    0.0000 O   0  0  0  0  0  0  0  0  0  0  0  0
    0.0000    0.0000    0.0000 O   0  0  0  0  0  0  0  0  0  0  0  0
    0.0000    0.0000    0.0000 N   0  0  0  0  0  0  0  0  0  0  0  0
    0.0000    0.0000    0.0000 C   0  0  0  0  0  0  0  0  0  0  0  0
    0.0000    0.0000    0.0000 N   0  0  0  0  0  0  0  0  0  0  0  0
    0.0000    0.0000    0.0000 C   0  0  0  0  0  0  0  0  0  0  0  0
    0.0000    0.0000    0.0000 N   0  0  0  0  0  0  0  0  0  0  0  0
    0.0000    0.0000    0.0000 N   0  0  0  0  0  0  0  0  0  0  0  0
    0.0000    0.0000    0.0000 C   0  0  0  0  0  0  0  0  0  0  0  0
    0.0000    0.0000    0.0000 N   0  0  0  0  0  0  0  0  0  0  0  0
    0.0000    0.0000    0.0000 C   0  0  0  0  0  0  0  0  0  0  0  0
  1  2  1  0
  2  3  1  0
  3  4  2  0
  4  5  1  0
  5  6  1  0
  6  7  2  0
  7  8  1  0
  8  9  2  0
  9 10  1  0
 10 11  2  0
  9 12  1  0
 12 13  2  0
 12 14  1  0
  4 15  1  0
 15 16  1  0
 16 17  2  0
 17 18  1  0
 18 19  1  0
 18 20  2  0
 20 21  1  0
 21 22  1  0
 21 23  2  0
 23  3  1  0
 11  6  1  0
 23 16  1  0
M  CHG  2  12   1  14  -1
M  END
>  <pIC50>  (323) 
5.24

>  <ChEMBL_ID>  (323) 
CHEMBL389887

>  <document_journal>  (323) 
J. Med. Chem.

>  <bao_endpoint>  (323) 
BAO_0000190

>  <potential_duplicate>  (323) 
False

>  <uo_units>  (323) 
UO_0000065

>  <canonical_smiles>  (323) 
CCc1c(Sc2ccc(cc2)[N+](=O)[O-])[nH]c3nc(N)nc(N)c13

>  <parent_molecule_chembl_id>  (323) 
CHEMBL389887

>  <assay_type>  (323) 
B

>  <src_id>  (323) 
1

>  <ligand_efficiency>  (323) 
{u'le': u'0.31', u'bei': u'15.85', u'sei': u'3.18', u'lle': u'2.05'}

>  <standard_flag>  (323) 
True

>  <molecule_chembl_id>  (323) 
CHEMBL389887

>  <target_organism>  (323) 
Homo sapiens

>  <standard_units>  (323) 
nM

>  <record_id>  (323) 
643815

>  <document_chembl_id>  (323) 
CHEMBL1145401

>  <bao_format>  (323) 
BAO_0000357

>  <data_validity_description>  (323) 
None

>  <activity_id>  (323) 
1904679

>  <standard_type>  (323) 
IC50

>  <target_chembl_id>  (323) 
CHEMBL202

>  <data_validity_comment>  (323) 
None

>  <published_value>  (323) 
5.8

>  <document_year>  (323) 
2007

>  <target_pref_name>  (323) 
Dihydrofolate reductase

>  <assay_chembl_id>  (323) 
CHEMBL889604

>  <standard_relation>  (323) 
=

>  <assay_description>  (323) 
Inhibition of human DHFR

>  <published_relation>  (323) 
=

>  <standard_value>  (323) 
5800

>  <qudt_units>  (323) 
http://www.openphacts.org/units/Nanomolar

>  <target_tax_id>  (323) 
9606

>  <bao_label>  (323) 
single protein format

>  <published_units>  (323) 
uM

>  <pchembl_value>  (323) 
5.24

>  <published_type>  (323) 
IC50

>  <activity_comment>  (323) 
None

$$$$

     RDKit          

 24 27  0  0  0  0  0  0  0  0999 V2000
    0.0000    0.0000    0.0000 C   0  0  0  0  0  0  0  0  0  0  0  0
    0.0000    0.0000    0.0000 C   0  0  0  0  0  0  0  0  0  0  0  0
    0.0000    0.0000    0.0000 C   0  0  0  0  0  0  0  0  0  0  0  0
    0.0000    0.0000    0.0000 C   0  0  0  0  0  0  0  0  0  0  0  0
    0.0000    0.0000    0.0000 S   0  0  0  0  0  0  0  0  0  0  0  0
    0.0000    0.0000    0.0000 C   0  0  0  0  0  0  0  0  0  0  0  0
    0.0000    0.0000    0.0000 C   0  0  0  0  0  0  0  0  0  0  0  0
    0.0000    0.0000    0.0000 C   0  0  0  0  0  0  0  0  0  0  0  0
    0.0000    0.0000    0.0000 C   0  0  0  0  0  0  0  0  0  0  0  0
    0.0000    0.0000    0.0000 C   0  0  0  0  0  0  0  0  0  0  0  0
    0.0000    0.0000    0.0000 C   0  0  0  0  0  0  0  0  0  0  0  0
    0.0000    0.0000    0.0000 C   0  0  0  0  0  0  0  0  0  0  0  0
    0.0000    0.0000    0.0000 C   0  0  0  0  0  0  0  0  0  0  0  0
    0.0000    0.0000    0.0000 C   0  0  0  0  0  0  0  0  0  0  0  0
    0.0000    0.0000    0.0000 C   0  0  0  0  0  0  0  0  0  0  0  0
    0.0000    0.0000    0.0000 N   0  0  0  0  0  0  0  0  0  0  0  0
    0.0000    0.0000    0.0000 C   0  0  0  0  0  0  0  0  0  0  0  0
    0.0000    0.0000    0.0000 N   0  0  0  0  0  0  0  0  0  0  0  0
    0.0000    0.0000    0.0000 C   0  0  0  0  0  0  0  0  0  0  0  0
    0.0000    0.0000    0.0000 N   0  0  0  0  0  0  0  0  0  0  0  0
    0.0000    0.0000    0.0000 N   0  0  0  0  0  0  0  0  0  0  0  0
    0.0000    0.0000    0.0000 C   0  0  0  0  0  0  0  0  0  0  0  0
    0.0000    0.0000    0.0000 N   0  0  0  0  0  0  0  0  0  0  0  0
    0.0000    0.0000    0.0000 C   0  0  0  0  0  0  0  0  0  0  0  0
  1  2  1  0
  2  3  1  0
  3  4  2  0
  4  5  1  0
  5  6  1  0
  6  7  2  0
  7  8  1  0
  8  9  2  0
  9 10  1  0
 10 11  2  0
 11 12  1  0
 12 13  2  0
 13 14  1  0
 14 15  2  0
  4 16  1  0
 16 17  1  0
 17 18  2  0
 18 19  1  0
 19 20  1  0
 19 21  2  0
 21 22  1  0
 22 23  1  0
 22 24  2  0
 24  3  1  0
 15  6  1  0
 14  9  1  0
 24 17  1  0
M  END
>  <pIC50>  (324) 
5.22

>  <ChEMBL_ID>  (324) 
CHEMBL226953

>  <document_journal>  (324) 
J. Med. Chem.

>  <bao_endpoint>  (324) 
BAO_0000190

>  <potential_duplicate>  (324) 
False

>  <uo_units>  (324) 
UO_0000065

>  <canonical_smiles>  (324) 
CCc1c(Sc2ccc3ccccc3c2)[nH]c4nc(N)nc(N)c14

>  <parent_molecule_chembl_id>  (324) 
CHEMBL226953

>  <assay_type>  (324) 
B

>  <src_id>  (324) 
1

>  <ligand_efficiency>  (324) 
{u'le': u'0.3', u'bei': u'15.57', u'sei': u'4.39', u'lle': u'1.02'}

>  <standard_flag>  (324) 
True

>  <molecule_chembl_id>  (324) 
CHEMBL226953

>  <target_organism>  (324) 
Homo sapiens

>  <standard_units>  (324) 
nM

>  <record_id>  (324) 
643814

>  <document_chembl_id>  (324) 
CHEMBL1145401

>  <bao_format>  (324) 
BAO_0000357

>  <data_validity_description>  (324) 
None

>  <activity_id>  (324) 
1904680

>  <standard_type>  (324) 
IC50

>  <target_chembl_id>  (324) 
CHEMBL202

>  <data_validity_comment>  (324) 
None

>  <published_value>  (324) 
6

>  <document_year>  (324) 
2007

>  <target_pref_name>  (324) 
Dihydrofolate reductase

>  <assay_chembl_id>  (324) 
CHEMBL889604

>  <standard_relation>  (324) 
=

>  <assay_description>  (324) 
Inhibition of human DHFR

>  <published_relation>  (324) 
=

>  <standard_value>  (324) 
6000

>  <qudt_units>  (324) 
http://www.openphacts.org/units/Nanomolar

>  <target_tax_id>  (324) 
9606

>  <bao_label>  (324) 
single protein format

>  <published_units>  (324) 
uM

>  <pchembl_value>  (324) 
5.22

>  <published_type>  (324) 
IC50

>  <activity_comment>  (324) 
None

$$$$

     RDKit          

 24 27  0  0  0  0  0  0  0  0999 V2000
    0.0000    0.0000    0.0000 C   0  0  0  0  0  0  0  0  0  0  0  0
    0.0000    0.0000    0.0000 C   0  0  0  0  0  0  0  0  0  0  0  0
    0.0000    0.0000    0.0000 C   0  0  0  0  0  0  0  0  0  0  0  0
    0.0000    0.0000    0.0000 C   0  0  0  0  0  0  0  0  0  0  0  0
    0.0000    0.0000    0.0000 S   0  0  0  0  0  0  0  0  0  0  0  0
    0.0000    0.0000    0.0000 C   0  0  0  0  0  0  0  0  0  0  0  0
    0.0000    0.0000    0.0000 C   0  0  0  0  0  0  0  0  0  0  0  0
    0.0000    0.0000    0.0000 C   0  0  0  0  0  0  0  0  0  0  0  0
    0.0000    0.0000    0.0000 C   0  0  0  0  0  0  0  0  0  0  0  0
    0.0000    0.0000    0.0000 C   0  0  0  0  0  0  0  0  0  0  0  0
    0.0000    0.0000    0.0000 C   0  0  0  0  0  0  0  0  0  0  0  0
    0.0000    0.0000    0.0000 C   0  0  0  0  0  0  0  0  0  0  0  0
    0.0000    0.0000    0.0000 C   0  0  0  0  0  0  0  0  0  0  0  0
    0.0000    0.0000    0.0000 C   0  0  0  0  0  0  0  0  0  0  0  0
    0.0000    0.0000    0.0000 C   0  0  0  0  0  0  0  0  0  0  0  0
    0.0000    0.0000    0.0000 N   0  0  0  0  0  0  0  0  0  0  0  0
    0.0000    0.0000    0.0000 C   0  0  0  0  0  0  0  0  0  0  0  0
    0.0000    0.0000    0.0000 N   0  0  0  0  0  0  0  0  0  0  0  0
    0.0000    0.0000    0.0000 C   0  0  0  0  0  0  0  0  0  0  0  0
    0.0000    0.0000    0.0000 N   0  0  0  0  0  0  0  0  0  0  0  0
    0.0000    0.0000    0.0000 N   0  0  0  0  0  0  0  0  0  0  0  0
    0.0000    0.0000    0.0000 C   0  0  0  0  0  0  0  0  0  0  0  0
    0.0000    0.0000    0.0000 N   0  0  0  0  0  0  0  0  0  0  0  0
    0.0000    0.0000    0.0000 C   0  0  0  0  0  0  0  0  0  0  0  0
  1  2  1  0
  2  3  1  0
  3  4  2  0
  4  5  1  0
  5  6  1  0
  6  7  2  0
  7  8  1  0
  8  9  2  0
  9 10  1  0
 10 11  2  0
 11 12  1  0
 12 13  2  0
 13 14  1  0
 14 15  2  0
  4 16  1  0
 16 17  1  0
 17 18  2  0
 18 19  1  0
 19 20  1  0
 19 21  2  0
 21 22  1  0
 22 23  1  0
 22 24  2  0
 24  3  1  0
 15  6  1  0
 15 10  1  0
 24 17  1  0
M  END
>  <pIC50>  (325) 
5.54

>  <ChEMBL_ID>  (325) 
CHEMBL226952

>  <document_journal>  (325) 
J. Med. Chem.

>  <bao_endpoint>  (325) 
BAO_0000190

>  <potential_duplicate>  (325) 
False

>  <uo_units>  (325) 
UO_0000065

>  <canonical_smiles>  (325) 
CCc1c(Sc2cccc3ccccc23)[nH]c4nc(N)nc(N)c14

>  <parent_molecule_chembl_id>  (325) 
CHEMBL226952

>  <assay_type>  (325) 
B

>  <src_id>  (325) 
1

>  <ligand_efficiency>  (325) 
{u'le': u'0.32', u'bei': u'16.51', u'sei': u'4.66', u'lle': u'1.34'}

>  <standard_flag>  (325) 
True

>  <molecule_chembl_id>  (325) 
CHEMBL226952

>  <target_organism>  (325) 
Homo sapiens

>  <standard_units>  (325) 
nM

>  <record_id>  (325) 
643813

>  <document_chembl_id>  (325) 
CHEMBL1145401

>  <bao_format>  (325) 
BAO_0000357

>  <data_validity_description>  (325) 
None

>  <activity_id>  (325) 
1904681

>  <standard_type>  (325) 
IC50

>  <target_chembl_id>  (325) 
CHEMBL202

>  <data_validity_comment>  (325) 
None

>  <published_value>  (325) 
2.9

>  <document_year>  (325) 
2007

>  <target_pref_name>  (325) 
Dihydrofolate reductase

>  <assay_chembl_id>  (325) 
CHEMBL889604

>  <standard_relation>  (325) 
=

>  <assay_description>  (325) 
Inhibition of human DHFR

>  <published_relation>  (325) 
=

>  <standard_value>  (325) 
2900

>  <qudt_units>  (325) 
http://www.openphacts.org/units/Nanomolar

>  <target_tax_id>  (325) 
9606

>  <bao_label>  (325) 
single protein format

>  <published_units>  (325) 
uM

>  <pchembl_value>  (325) 
5.54

>  <published_type>  (325) 
IC50

>  <activity_comment>  (325) 
None

$$$$

     RDKit          

 32 34  0  0  0  0  0  0  0  0999 V2000
    0.0000    0.0000    0.0000 C   0  0  0  0  0  0  0  0  0  0  0  0
    0.0000    0.0000    0.0000 C   0  0  0  0  0  0  0  0  0  0  0  0
    0.0000    0.0000    0.0000 C   0  0  0  0  0  0  0  0  0  0  0  0
    0.0000    0.0000    0.0000 C   0  0  0  0  0  0  0  0  0  0  0  0
    0.0000    0.0000    0.0000 S   0  0  0  0  0  0  0  0  0  0  0  0
    0.0000    0.0000    0.0000 C   0  0  0  0  0  0  0  0  0  0  0  0
    0.0000    0.0000    0.0000 C   0  0  0  0  0  0  0  0  0  0  0  0
    0.0000    0.0000    0.0000 C   0  0  0  0  0  0  0  0  0  0  0  0
    0.0000    0.0000    0.0000 C   0  0  0  0  0  0  0  0  0  0  0  0
    0.0000    0.0000    0.0000 C   0  0  0  0  0  0  0  0  0  0  0  0
    0.0000    0.0000    0.0000 C   0  0  0  0  0  0  0  0  0  0  0  0
    0.0000    0.0000    0.0000 C   0  0  0  0  0  0  0  0  0  0  0  0
    0.0000    0.0000    0.0000 O   0  0  0  0  0  0  0  0  0  0  0  0
    0.0000    0.0000    0.0000 N   0  0  0  0  0  0  0  0  0  0  0  0
    0.0000    0.0000    0.0000 C   0  0  0  0  0  0  0  0  0  0  0  0
    0.0000    0.0000    0.0000 C   0  0  0  0  0  0  0  0  0  0  0  0
    0.0000    0.0000    0.0000 C   0  0  0  0  0  0  0  0  0  0  0  0
    0.0000    0.0000    0.0000 C   0  0  0  0  0  0  0  0  0  0  0  0
    0.0000    0.0000    0.0000 O   0  0  0  0  0  0  0  0  0  0  0  0
    0.0000    0.0000    0.0000 O   0  0  0  0  0  0  0  0  0  0  0  0
    0.0000    0.0000    0.0000 C   0  0  0  0  0  0  0  0  0  0  0  0
    0.0000    0.0000    0.0000 O   0  0  0  0  0  0  0  0  0  0  0  0
    0.0000    0.0000    0.0000 O   0  0  0  0  0  0  0  0  0  0  0  0
    0.0000    0.0000    0.0000 N   0  0  0  0  0  0  0  0  0  0  0  0
    0.0000    0.0000    0.0000 C   0  0  0  0  0  0  0  0  0  0  0  0
    0.0000    0.0000    0.0000 N   0  0  0  0  0  0  0  0  0  0  0  0
    0.0000    0.0000    0.0000 C   0  0  0  0  0  0  0  0  0  0  0  0
    0.0000    0.0000    0.0000 N   0  0  0  0  0  0  0  0  0  0  0  0
    0.0000    0.0000    0.0000 N   0  0  0  0  0  0  0  0  0  0  0  0
    0.0000    0.0000    0.0000 C   0  0  0  0  0  0  0  0  0  0  0  0
    0.0000    0.0000    0.0000 N   0  0  0  0  0  0  0  0  0  0  0  0
    0.0000    0.0000    0.0000 C   0  0  0  0  0  0  0  0  0  0  0  0
  1  2  1  0
  2  3  1  0
  3  4  2  0
  4  5  1  0
  5  6  1  0
  6  7  2  0
  7  8  1  0
  8  9  2  0
  9 10  1  0
 10 11  2  0
  9 12  1  0
 12 13  2  0
 12 14  1  0
 14 15  1  0
 15 16  1  0
 16 17  1  0
 17 18  1  0
 18 19  2  0
 18 20  1  0
 15 21  1  0
 21 22  2  0
 21 23  1  0
  4 24  1  0
 24 25  1  0
 25 26  2  0
 26 27  1  0
 27 28  1  0
 27 29  2  0
 29 30  1  0
 30 31  1  0
 30 32  2  0
 32  3  1  0
 11  6  1  0
 32 25  1  0
M  END
>  <pIC50>  (326) 
7.18

>  <ChEMBL_ID>  (326) 
CHEMBL438664

>  <document_journal>  (326) 
J. Med. Chem.

>  <bao_endpoint>  (326) 
BAO_0000190

>  <potential_duplicate>  (326) 
False

>  <uo_units>  (326) 
UO_0000065

>  <canonical_smiles>  (326) 
CCc1c(Sc2ccc(cc2)C(=O)N[C@@H](CCC(=O)O)C(=O)O)[nH]c3nc(N)nc(N)c13

>  <parent_molecule_chembl_id>  (326) 
CHEMBL438664

>  <assay_type>  (326) 
B

>  <src_id>  (326) 
1

>  <ligand_efficiency>  (326) 
{u'le': u'0.31', u'bei': u'15.66', u'sei': u'3.23', u'lle': u'5.01'}

>  <standard_flag>  (326) 
True

>  <molecule_chembl_id>  (326) 
CHEMBL438664

>  <target_organism>  (326) 
Homo sapiens

>  <standard_units>  (326) 
nM

>  <record_id>  (326) 
643812

>  <document_chembl_id>  (326) 
CHEMBL1145401

>  <bao_format>  (326) 
BAO_0000357

>  <data_validity_description>  (326) 
None

>  <activity_id>  (326) 
1904682

>  <standard_type>  (326) 
IC50

>  <target_chembl_id>  (326) 
CHEMBL202

>  <data_validity_comment>  (326) 
None

>  <published_value>  (326) 
0.066

>  <document_year>  (326) 
2007

>  <target_pref_name>  (326) 
Dihydrofolate reductase

>  <assay_chembl_id>  (326) 
CHEMBL889604

>  <standard_relation>  (326) 
=

>  <assay_description>  (326) 
Inhibition of human DHFR

>  <published_relation>  (326) 
=

>  <standard_value>  (326) 
66

>  <qudt_units>  (326) 
http://www.openphacts.org/units/Nanomolar

>  <target_tax_id>  (326) 
9606

>  <bao_label>  (326) 
single protein format

>  <published_units>  (326) 
uM

>  <pchembl_value>  (326) 
7.18

>  <published_type>  (326) 
IC50

>  <activity_comment>  (326) 
None

$$$$

     RDKit          

 34 36  0  0  0  0  0  0  0  0999 V2000
    0.0000    0.0000    0.0000 C   0  0  0  0  0  0  0  0  0  0  0  0
    0.0000    0.0000    0.0000 N   0  0  0  0  0  0  0  0  0  0  0  0
    0.0000    0.0000    0.0000 C   0  0  0  0  0  0  0  0  0  0  0  0
    0.0000    0.0000    0.0000 C   0  0  0  0  0  0  0  0  0  0  0  0
    0.0000    0.0000    0.0000 C   0  0  0  0  0  0  0  0  0  0  0  0
    0.0000    0.0000    0.0000 N   0  0  0  0  0  0  0  0  0  0  0  0
    0.0000    0.0000    0.0000 C   0  0  0  0  0  0  0  0  0  0  0  0
    0.0000    0.0000    0.0000 N   0  0  0  0  0  0  0  0  0  0  0  0
    0.0000    0.0000    0.0000 C   0  0  0  0  0  0  0  0  0  0  0  0
    0.0000    0.0000    0.0000 N   0  0  0  0  0  0  0  0  0  0  0  0
    0.0000    0.0000    0.0000 N   0  0  0  0  0  0  0  0  0  0  0  0
    0.0000    0.0000    0.0000 C   0  0  0  0  0  0  0  0  0  0  0  0
    0.0000    0.0000    0.0000 N   0  0  0  0  0  0  0  0  0  0  0  0
    0.0000    0.0000    0.0000 C   0  0  0  0  0  0  0  0  0  0  0  0
    0.0000    0.0000    0.0000 N   0  0  0  0  0  0  0  0  0  0  0  0
    0.0000    0.0000    0.0000 C   0  0  0  0  0  0  0  0  0  0  0  0
    0.0000    0.0000    0.0000 C   0  0  0  0  0  0  0  0  0  0  0  0
    0.0000    0.0000    0.0000 C   0  0  0  0  0  0  0  0  0  0  0  0
    0.0000    0.0000    0.0000 C   0  0  0  0  0  0  0  0  0  0  0  0
    0.0000    0.0000    0.0000 C   0  0  0  0  0  0  0  0  0  0  0  0
    0.0000    0.0000    0.0000 C   0  0  0  0  0  0  0  0  0  0  0  0
    0.0000    0.0000    0.0000 C   0  0  0  0  0  0  0  0  0  0  0  0
    0.0000    0.0000    0.0000 O   0  0  0  0  0  0  0  0  0  0  0  0
    0.0000    0.0000    0.0000 N   0  0  0  0  0  0  0  0  0  0  0  0
    0.0000    0.0000    0.0000 C   0  0  0  0  0  0  0  0  0  0  0  0
    0.0000    0.0000    0.0000 C   0  0  0  0  0  0  0  0  0  0  0  0
    0.0000    0.0000    0.0000 C   0  0  0  0  0  0  0  0  0  0  0  0
    0.0000    0.0000    0.0000 C   0  0  0  0  0  0  0  0  0  0  0  0
    0.0000    0.0000    0.0000 O   0  0  0  0  0  0  0  0  0  0  0  0
    0.0000    0.0000    0.0000 N   0  0  0  0  0  0  0  0  0  0  0  0
    0.0000    0.0000    0.0000 O   0  0  0  0  0  0  0  0  0  0  0  0
    0.0000    0.0000    0.0000 C   0  0  0  0  0  0  0  0  0  0  0  0
    0.0000    0.0000    0.0000 O   0  0  0  0  0  0  0  0  0  0  0  0
    0.0000    0.0000    0.0000 O   0  0  0  0  0  0  0  0  0  0  0  0
  1  2  1  0
  2  3  1  0
  3  4  1  0
  4  5  2  0
  5  6  1  0
  6  7  2  0
  7  8  1  0
  8  9  2  0
  9 10  1  0
  9 11  1  0
 11 12  2  0
 12 13  1  0
 12 14  1  0
 14 15  2  0
  2 16  1  0
 16 17  2  0
 17 18  1  0
 18 19  2  0
 19 20  1  0
 20 21  2  0
 19 22  1  0
 22 23  2  0
 22 24  1  0
 24 25  1  0
 25 26  1  0
 26 27  1  0
 27 28  1  0
 28 29  2  0
 28 30  1  0
 30 31  1  0
 25 32  1  0
 32 33  2  0
 32 34  1  0
 15  4  1  0
 14  7  1  0
 21 16  1  0
M  END
>  <pIC50>  (327) 
6.965

>  <ChEMBL_ID>  (327) 
CHEMBL244883

>  <document_journal>  (327) 
Bioorg. Med. Chem.

>  <bao_endpoint>  (327) 
BAO_0000190

>  <potential_duplicate>  (327) 
False

>  <uo_units>  (327) 
UO_0000065

>  <canonical_smiles>  (327) 
CN(Cc1cnc2nc(N)nc(N)c2n1)c3ccc(cc3)C(=O)N[C@@H](CCC(=O)NO)C(=O)O

>  <parent_molecule_chembl_id>  (327) 
CHEMBL244883

>  <assay_type>  (327) 
B

>  <src_id>  (327) 
1

>  <ligand_efficiency>  (327) 
{u'le': u'0.27', u'bei': u'14.42', u'sei': u'3.04', u'lle': u'7.27'}

>  <standard_flag>  (327) 
True

>  <molecule_chembl_id>  (327) 
CHEMBL244883

>  <target_organism>  (327) 
Homo sapiens

>  <standard_units>  (327) 
nM

>  <record_id>  (327) 
646860

>  <document_chembl_id>  (327) 
CHEMBL1146314

>  <bao_format>  (327) 
BAO_0000357

>  <data_validity_description>  (327) 
None

>  <activity_id>  (327) 
1940381

>  <standard_type>  (327) 
IC50

>  <target_chembl_id>  (327) 
CHEMBL202

>  <data_validity_comment>  (327) 
None

>  <published_value>  (327) 
170

>  <document_year>  (327) 
2007

>  <target_pref_name>  (327) 
Dihydrofolate reductase

>  <assay_chembl_id>  (327) 
CHEMBL891310

>  <standard_relation>  (327) 
=

>  <assay_description>  (327) 
Inhibition of DHFR using folic acid substrate

>  <published_relation>  (327) 
=

>  <standard_value>  (327) 
170

>  <qudt_units>  (327) 
http://www.openphacts.org/units/Nanomolar

>  <target_tax_id>  (327) 
9606

>  <bao_label>  (327) 
single protein format

>  <published_units>  (327) 
nM

>  <pchembl_value>  (327) 
6.77

>  <published_type>  (327) 
IC50

>  <activity_comment>  (327) 
None

$$$$

     RDKit          

 41 44  0  0  0  0  0  0  0  0999 V2000
    0.0000    0.0000    0.0000 C   0  0  0  0  0  0  0  0  0  0  0  0
    0.0000    0.0000    0.0000 N   0  0  0  0  0  0  0  0  0  0  0  0
    0.0000    0.0000    0.0000 C   0  0  0  0  0  0  0  0  0  0  0  0
    0.0000    0.0000    0.0000 C   0  0  0  0  0  0  0  0  0  0  0  0
    0.0000    0.0000    0.0000 C   0  0  0  0  0  0  0  0  0  0  0  0
    0.0000    0.0000    0.0000 N   0  0  0  0  0  0  0  0  0  0  0  0
    0.0000    0.0000    0.0000 C   0  0  0  0  0  0  0  0  0  0  0  0
    0.0000    0.0000    0.0000 N   0  0  0  0  0  0  0  0  0  0  0  0
    0.0000    0.0000    0.0000 C   0  0  0  0  0  0  0  0  0  0  0  0
    0.0000    0.0000    0.0000 N   0  0  0  0  0  0  0  0  0  0  0  0
    0.0000    0.0000    0.0000 N   0  0  0  0  0  0  0  0  0  0  0  0
    0.0000    0.0000    0.0000 C   0  0  0  0  0  0  0  0  0  0  0  0
    0.0000    0.0000    0.0000 N   0  0  0  0  0  0  0  0  0  0  0  0
    0.0000    0.0000    0.0000 C   0  0  0  0  0  0  0  0  0  0  0  0
    0.0000    0.0000    0.0000 N   0  0  0  0  0  0  0  0  0  0  0  0
    0.0000    0.0000    0.0000 C   0  0  0  0  0  0  0  0  0  0  0  0
    0.0000    0.0000    0.0000 C   0  0  0  0  0  0  0  0  0  0  0  0
    0.0000    0.0000    0.0000 C   0  0  0  0  0  0  0  0  0  0  0  0
    0.0000    0.0000    0.0000 C   0  0  0  0  0  0  0  0  0  0  0  0
    0.0000    0.0000    0.0000 C   0  0  0  0  0  0  0  0  0  0  0  0
    0.0000    0.0000    0.0000 C   0  0  0  0  0  0  0  0  0  0  0  0
    0.0000    0.0000    0.0000 C   0  0  0  0  0  0  0  0  0  0  0  0
    0.0000    0.0000    0.0000 O   0  0  0  0  0  0  0  0  0  0  0  0
    0.0000    0.0000    0.0000 N   0  0  0  0  0  0  0  0  0  0  0  0
    0.0000    0.0000    0.0000 C   0  0  0  0  0  0  0  0  0  0  0  0
    0.0000    0.0000    0.0000 C   0  0  0  0  0  0  0  0  0  0  0  0
    0.0000    0.0000    0.0000 C   0  0  0  0  0  0  0  0  0  0  0  0
    0.0000    0.0000    0.0000 C   0  0  0  0  0  0  0  0  0  0  0  0
    0.0000    0.0000    0.0000 O   0  0  0  0  0  0  0  0  0  0  0  0
    0.0000    0.0000    0.0000 N   0  0  0  0  0  0  0  0  0  0  0  0
    0.0000    0.0000    0.0000 C   0  0  0  0  0  0  0  0  0  0  0  0
    0.0000    0.0000    0.0000 C   0  0  0  0  0  0  0  0  0  0  0  0
    0.0000    0.0000    0.0000 C   0  0  0  0  0  0  0  0  0  0  0  0
    0.0000    0.0000    0.0000 C   0  0  0  0  0  0  0  0  0  0  0  0
    0.0000    0.0000    0.0000 C   0  0  0  0  0  0  0  0  0  0  0  0
    0.0000    0.0000    0.0000 O   0  0  0  0  0  0  0  0  0  0  0  0
    0.0000    0.0000    0.0000 N   0  0  0  0  0  0  0  0  0  0  0  0
    0.0000    0.0000    0.0000 O   0  0  0  0  0  0  0  0  0  0  0  0
    0.0000    0.0000    0.0000 C   0  0  0  0  0  0  0  0  0  0  0  0
    0.0000    0.0000    0.0000 O   0  0  0  0  0  0  0  0  0  0  0  0
    0.0000    0.0000    0.0000 O   0  0  0  0  0  0  0  0  0  0  0  0
  1  2  1  0
  2  3  1  0
  3  4  1  0
  4  5  2  0
  5  6  1  0
  6  7  2  0
  7  8  1  0
  8  9  2  0
  9 10  1  0
  9 11  1  0
 11 12  2  0
 12 13  1  0
 12 14  1  0
 14 15  2  0
  2 16  1  0
 16 17  2  0
 17 18  1  0
 18 19  2  0
 19 20  1  0
 20 21  2  0
 19 22  1  0
 22 23  2  0
 22 24  1  0
 24 25  1  0
 25 26  1  0
 26 27  1  0
 27 28  1  0
 28 29  2  0
 28 30  1  0
 30 31  1  0
 31 32  1  0
 32 33  1  0
 33 34  1  0
 34 35  1  0
 35 36  2  0
 35 37  1  0
 37 38  1  0
 25 39  1  0
 39 40  2  0
 39 41  1  0
 15  4  1  0
 14  7  1  0
 21 16  1  0
 34 30  1  0
M  END
>  <pIC50>  (328) 
6.905

>  <ChEMBL_ID>  (328) 
CHEMBL388879

>  <document_journal>  (328) 
Bioorg. Med. Chem.

>  <bao_endpoint>  (328) 
BAO_0000190

>  <potential_duplicate>  (328) 
False

>  <uo_units>  (328) 
UO_0000065

>  <canonical_smiles>  (328) 
CN(Cc1cnc2nc(N)nc(N)c2n1)c3ccc(cc3)C(=O)N[C@@H](CCC(=O)N4CCC[C@H]4C(=O)NO)C(=O)O

>  <parent_molecule_chembl_id>  (328) 
CHEMBL388879

>  <assay_type>  (328) 
B

>  <src_id>  (328) 
1

>  <ligand_efficiency>  (328) 
{u'le': u'0.23', u'bei': u'12.15', u'sei': u'2.84', u'lle': u'7.53'}

>  <standard_flag>  (328) 
True

>  <molecule_chembl_id>  (328) 
CHEMBL388879

>  <target_organism>  (328) 
Homo sapiens

>  <standard_units>  (328) 
nM

>  <record_id>  (328) 
646862

>  <document_chembl_id>  (328) 
CHEMBL1146314

>  <bao_format>  (328) 
BAO_0000357

>  <data_validity_description>  (328) 
None

>  <activity_id>  (328) 
1940383

>  <standard_type>  (328) 
IC50

>  <target_chembl_id>  (328) 
CHEMBL202

>  <data_validity_comment>  (328) 
None

>  <published_value>  (328) 
130

>  <document_year>  (328) 
2007

>  <target_pref_name>  (328) 
Dihydrofolate reductase

>  <assay_chembl_id>  (328) 
CHEMBL891310

>  <standard_relation>  (328) 
=

>  <assay_description>  (328) 
Inhibition of DHFR using folic acid substrate

>  <published_relation>  (328) 
=

>  <standard_value>  (328) 
130

>  <qudt_units>  (328) 
http://www.openphacts.org/units/Nanomolar

>  <target_tax_id>  (328) 
9606

>  <bao_label>  (328) 
single protein format

>  <published_units>  (328) 
nM

>  <pchembl_value>  (328) 
6.89

>  <published_type>  (328) 
IC50

>  <activity_comment>  (328) 
None

$$$$

     RDKit          

 45 48  0  0  0  0  0  0  0  0999 V2000
    0.0000    0.0000    0.0000 C   0  0  0  0  0  0  0  0  0  0  0  0
    0.0000    0.0000    0.0000 N   0  0  0  0  0  0  0  0  0  0  0  0
    0.0000    0.0000    0.0000 C   0  0  0  0  0  0  0  0  0  0  0  0
    0.0000    0.0000    0.0000 C   0  0  0  0  0  0  0  0  0  0  0  0
    0.0000    0.0000    0.0000 C   0  0  0  0  0  0  0  0  0  0  0  0
    0.0000    0.0000    0.0000 N   0  0  0  0  0  0  0  0  0  0  0  0
    0.0000    0.0000    0.0000 C   0  0  0  0  0  0  0  0  0  0  0  0
    0.0000    0.0000    0.0000 N   0  0  0  0  0  0  0  0  0  0  0  0
    0.0000    0.0000    0.0000 C   0  0  0  0  0  0  0  0  0  0  0  0
    0.0000    0.0000    0.0000 N   0  0  0  0  0  0  0  0  0  0  0  0
    0.0000    0.0000    0.0000 N   0  0  0  0  0  0  0  0  0  0  0  0
    0.0000    0.0000    0.0000 C   0  0  0  0  0  0  0  0  0  0  0  0
    0.0000    0.0000    0.0000 N   0  0  0  0  0  0  0  0  0  0  0  0
    0.0000    0.0000    0.0000 C   0  0  0  0  0  0  0  0  0  0  0  0
    0.0000    0.0000    0.0000 N   0  0  0  0  0  0  0  0  0  0  0  0
    0.0000    0.0000    0.0000 C   0  0  0  0  0  0  0  0  0  0  0  0
    0.0000    0.0000    0.0000 C   0  0  0  0  0  0  0  0  0  0  0  0
    0.0000    0.0000    0.0000 C   0  0  0  0  0  0  0  0  0  0  0  0
    0.0000    0.0000    0.0000 C   0  0  0  0  0  0  0  0  0  0  0  0
    0.0000    0.0000    0.0000 C   0  0  0  0  0  0  0  0  0  0  0  0
    0.0000    0.0000    0.0000 C   0  0  0  0  0  0  0  0  0  0  0  0
    0.0000    0.0000    0.0000 C   0  0  0  0  0  0  0  0  0  0  0  0
    0.0000    0.0000    0.0000 O   0  0  0  0  0  0  0  0  0  0  0  0
    0.0000    0.0000    0.0000 N   0  0  0  0  0  0  0  0  0  0  0  0
    0.0000    0.0000    0.0000 C   0  0  0  0  0  0  0  0  0  0  0  0
    0.0000    0.0000    0.0000 C   0  0  0  0  0  0  0  0  0  0  0  0
    0.0000    0.0000    0.0000 C   0  0  0  0  0  0  0  0  0  0  0  0
    0.0000    0.0000    0.0000 C   0  0  0  0  0  0  0  0  0  0  0  0
    0.0000    0.0000    0.0000 O   0  0  0  0  0  0  0  0  0  0  0  0
    0.0000    0.0000    0.0000 N   0  0  0  0  0  0  0  0  0  0  0  0
    0.0000    0.0000    0.0000 C   0  0  0  0  0  0  0  0  0  0  0  0
    0.0000    0.0000    0.0000 C   0  0  0  0  0  0  0  0  0  0  0  0
    0.0000    0.0000    0.0000 C   0  0  0  0  0  0  0  0  0  0  0  0
    0.0000    0.0000    0.0000 C   0  0  0  0  0  0  0  0  0  0  0  0
    0.0000    0.0000    0.0000 C   0  0  0  0  0  0  0  0  0  0  0  0
    0.0000    0.0000    0.0000 C   0  0  0  0  0  0  0  0  0  0  0  0
    0.0000    0.0000    0.0000 C   0  0  0  0  0  0  0  0  0  0  0  0
    0.0000    0.0000    0.0000 C   0  0  0  0  0  0  0  0  0  0  0  0
    0.0000    0.0000    0.0000 C   0  0  0  0  0  0  0  0  0  0  0  0
    0.0000    0.0000    0.0000 O   0  0  0  0  0  0  0  0  0  0  0  0
    0.0000    0.0000    0.0000 N   0  0  0  0  0  0  0  0  0  0  0  0
    0.0000    0.0000    0.0000 O   0  0  0  0  0  0  0  0  0  0  0  0
    0.0000    0.0000    0.0000 C   0  0  0  0  0  0  0  0  0  0  0  0
    0.0000    0.0000    0.0000 O   0  0  0  0  0  0  0  0  0  0  0  0
    0.0000    0.0000    0.0000 O   0  0  0  0  0  0  0  0  0  0  0  0
  1  2  1  0
  2  3  1  0
  3  4  1  0
  4  5  2  0
  5  6  1  0
  6  7  2  0
  7  8  1  0
  8  9  2  0
  9 10  1  0
  9 11  1  0
 11 12  2  0
 12 13  1  0
 12 14  1  0
 14 15  2  0
  2 16  1  0
 16 17  2  0
 17 18  1  0
 18 19  2  0
 19 20  1  0
 20 21  2  0
 19 22  1  0
 22 23  2  0
 22 24  1  0
 24 25  1  0
 25 26  1  0
 26 27  1  0
 27 28  1  0
 28 29  2  0
 28 30  1  0
 30 31  1  0
 31 32  1  0
 32 33  1  0
 33 34  2  0
 34 35  1  0
 35 36  2  0
 36 37  1  0
 37 38  2  0
 31 39  1  0
 39 40  2  0
 39 41  1  0
 41 42  1  0
 25 43  1  0
 43 44  2  0
 43 45  1  0
 15  4  1  0
 14  7  1  0
 21 16  1  0
 38 33  1  0
M  END
>  <pIC50>  (329) 
6.685

>  <ChEMBL_ID>  (329) 
CHEMBL396296

>  <document_journal>  (329) 
Bioorg. Med. Chem.

>  <bao_endpoint>  (329) 
BAO_0000190

>  <potential_duplicate>  (329) 
False

>  <uo_units>  (329) 
UO_0000065

>  <canonical_smiles>  (329) 
CN(Cc1cnc2nc(N)nc(N)c2n1)c3ccc(cc3)C(=O)N[C@@H](CCC(=O)N[C@@H](Cc4ccccc4)C(=O)NO)C(=O)O

>  <parent_molecule_chembl_id>  (329) 
CHEMBL396296

>  <assay_type>  (329) 
B

>  <src_id>  (329) 
1

>  <ligand_efficiency>  (329) 
{u'le': u'0.2', u'bei': u'10.71', u'sei': u'2.62', u'lle': u'6'}

>  <standard_flag>  (329) 
True

>  <molecule_chembl_id>  (329) 
CHEMBL396296

>  <target_organism>  (329) 
Homo sapiens

>  <standard_units>  (329) 
nM

>  <record_id>  (329) 
646861

>  <document_chembl_id>  (329) 
CHEMBL1146314

>  <bao_format>  (329) 
BAO_0000357

>  <data_validity_description>  (329) 
None

>  <activity_id>  (329) 
1940384

>  <standard_type>  (329) 
IC50

>  <target_chembl_id>  (329) 
CHEMBL202

>  <data_validity_comment>  (329) 
None

>  <published_value>  (329) 
250

>  <document_year>  (329) 
2007

>  <target_pref_name>  (329) 
Dihydrofolate reductase

>  <assay_chembl_id>  (329) 
CHEMBL891310

>  <standard_relation>  (329) 
=

>  <assay_description>  (329) 
Inhibition of DHFR using folic acid substrate

>  <published_relation>  (329) 
=

>  <standard_value>  (329) 
250

>  <qudt_units>  (329) 
http://www.openphacts.org/units/Nanomolar

>  <target_tax_id>  (329) 
9606

>  <bao_label>  (329) 
single protein format

>  <published_units>  (329) 
nM

>  <pchembl_value>  (329) 
6.6

>  <published_type>  (329) 
IC50

>  <activity_comment>  (329) 
None

$$$$

     RDKit          

 35 37  0  0  0  0  0  0  0  0999 V2000
    0.0000    0.0000    0.0000 N   0  0  0  0  0  0  0  0  0  0  0  0
    0.0000    0.0000    0.0000 C   0  0  0  0  0  0  0  0  0  0  0  0
    0.0000    0.0000    0.0000 N   0  0  0  0  0  0  0  0  0  0  0  0
    0.0000    0.0000    0.0000 C   0  0  0  0  0  0  0  0  0  0  0  0
    0.0000    0.0000    0.0000 O   0  0  0  0  0  0  0  0  0  0  0  0
    0.0000    0.0000    0.0000 C   0  0  0  0  0  0  0  0  0  0  0  0
    0.0000    0.0000    0.0000 C   0  0  0  0  0  0  0  0  0  0  0  0
    0.0000    0.0000    0.0000 C   0  0  0  0  0  0  0  0  0  0  0  0
    0.0000    0.0000    0.0000 C   0  0  0  0  0  0  0  0  0  0  0  0
    0.0000    0.0000    0.0000 C   0  0  0  0  0  0  0  0  0  0  0  0
    0.0000    0.0000    0.0000 C   0  0  0  0  0  0  0  0  0  0  0  0
    0.0000    0.0000    0.0000 C   0  0  0  0  0  0  0  0  0  0  0  0
    0.0000    0.0000    0.0000 N   0  0  0  0  0  0  0  0  0  0  0  0
    0.0000    0.0000    0.0000 C   0  0  0  0  0  0  0  0  0  0  0  0
    0.0000    0.0000    0.0000 C   0  0  0  0  0  0  0  0  0  0  0  0
    0.0000    0.0000    0.0000 C   0  0  0  0  0  0  0  0  0  0  0  0
    0.0000    0.0000    0.0000 C   0  0  0  0  0  0  0  0  0  0  0  0
    0.0000    0.0000    0.0000 C   0  0  0  0  0  0  0  0  0  0  0  0
    0.0000    0.0000    0.0000 C   0  0  0  0  0  0  0  0  0  0  0  0
    0.0000    0.0000    0.0000 C   0  0  0  0  0  0  0  0  0  0  0  0
    0.0000    0.0000    0.0000 C   0  0  0  0  0  0  0  0  0  0  0  0
    0.0000    0.0000    0.0000 C   0  0  0  0  0  0  0  0  0  0  0  0
    0.0000    0.0000    0.0000 C   0  0  0  0  0  0  0  0  0  0  0  0
    0.0000    0.0000    0.0000 O   0  0  0  0  0  0  0  0  0  0  0  0
    0.0000    0.0000    0.0000 N   0  0  0  0  0  0  0  0  0  0  0  0
    0.0000    0.0000    0.0000 C   0  0  0  0  0  0  0  0  0  0  0  0
    0.0000    0.0000    0.0000 C   0  0  0  0  0  0  0  0  0  0  0  0
    0.0000    0.0000    0.0000 C   0  0  0  0  0  0  0  0  0  0  0  0
    0.0000    0.0000    0.0000 C   0  0  0  0  0  0  0  0  0  0  0  0
    0.0000    0.0000    0.0000 O   0  0  0  0  0  0  0  0  0  0  0  0
    0.0000    0.0000    0.0000 O   0  0  0  0  0  0  0  0  0  0  0  0
    0.0000    0.0000    0.0000 C   0  0  0  0  0  0  0  0  0  0  0  0
    0.0000    0.0000    0.0000 O   0  0  0  0  0  0  0  0  0  0  0  0
    0.0000    0.0000    0.0000 O   0  0  0  0  0  0  0  0  0  0  0  0
    0.0000    0.0000    0.0000 N   0  0  0  0  0  0  0  0  0  0  0  0
  1  2  2  0
  2  3  1  0
  3  4  1  0
  4  5  2  0
  6  1  1  0
  7  6  2  0
  6  8  1  0
  9  7  1  0
  4  8  1  0
  8 10  2  0
 11  9  2  0
 10 11  1  0
 11 12  1  0
 12 13  1  0
 13 14  1  0
 13 15  1  0
 14 16  1  0
 15 17  2  0
 18 15  1  0
 16 19  3  0
 17 20  1  0
 21 18  2  0
 20 22  2  0
 22 21  1  0
 22 23  1  0
 23 24  2  0
 23 25  1  0
 25 26  1  0
 26 27  1  0
 26 28  1  0
 27 29  1  0
 28 30  2  0
 28 31  1  0
 29 32  1  0
 32 33  2  0
 32 34  1  0
 35  2  1  0
M  END
>  <pIC50>  (330) 
5.46666666667

>  <ChEMBL_ID>  (330) 
CHEMBL389051

>  <document_journal>  (330) 
J. Med. Chem.

>  <bao_endpoint>  (330) 
BAO_0000190

>  <potential_duplicate>  (330) 
False

>  <uo_units>  (330) 
UO_0000065

>  <canonical_smiles>  (330) 
NC1=NC(=O)c2cc(CN(CC#C)c3ccc(cc3)C(=O)N[C@@H](CCC(=O)O)C(=O)O)ccc2N1

>  <parent_molecule_chembl_id>  (330) 
CHEMBL389051

>  <assay_type>  (330) 
B

>  <src_id>  (330) 
1

>  <ligand_efficiency>  (330) 
{u'le': u'0.22', u'bei': u'11.98', u'sei': u'3.28', u'lle': u'3.29'}

>  <standard_flag>  (330) 
True

>  <molecule_chembl_id>  (330) 
CHEMBL389051

>  <target_organism>  (330) 
Homo sapiens

>  <standard_units>  (330) 
nM

>  <record_id>  (330) 
685296

>  <document_chembl_id>  (330) 
CHEMBL1140703

>  <bao_format>  (330) 
BAO_0000357

>  <data_validity_description>  (330) 
None

>  <activity_id>  (330) 
2064627

>  <standard_type>  (330) 
IC50

>  <target_chembl_id>  (330) 
CHEMBL202

>  <data_validity_comment>  (330) 
None

>  <published_value>  (330) 
1.9

>  <document_year>  (330) 
2008

>  <target_pref_name>  (330) 
Dihydrofolate reductase

>  <assay_chembl_id>  (330) 
CHEMBL926353

>  <standard_relation>  (330) 
=

>  <assay_description>  (330) 
Inhibition of human recombinant DHFR

>  <published_relation>  (330) 
=

>  <standard_value>  (330) 
1900

>  <qudt_units>  (330) 
http://www.openphacts.org/units/Nanomolar

>  <target_tax_id>  (330) 
9606

>  <bao_label>  (330) 
single protein format

>  <published_units>  (330) 
uM

>  <pchembl_value>  (330) 
5.72

>  <published_type>  (330) 
IC50

>  <activity_comment>  (330) 
None

$$$$

     RDKit          

 22 24  0  0  0  0  0  0  0  0999 V2000
    0.0000    0.0000    0.0000 C   0  0  0  0  0  0  0  0  0  0  0  0
    0.0000    0.0000    0.0000 C   0  0  0  0  0  0  0  0  0  0  0  0
    0.0000    0.0000    0.0000 C   0  0  0  0  0  0  0  0  0  0  0  0
    0.0000    0.0000    0.0000 C   0  0  0  0  0  0  0  0  0  0  0  0
    0.0000    0.0000    0.0000 N   0  0  0  0  0  0  0  0  0  0  0  0
    0.0000    0.0000    0.0000 C   0  0  0  0  0  0  0  0  0  0  0  0
    0.0000    0.0000    0.0000 N   0  0  0  0  0  0  0  0  0  0  0  0
    0.0000    0.0000    0.0000 N   0  0  0  0  0  0  0  0  0  0  0  0
    0.0000    0.0000    0.0000 C   0  0  0  0  0  0  0  0  0  0  0  0
    0.0000    0.0000    0.0000 O   0  0  0  0  0  0  0  0  0  0  0  0
    0.0000    0.0000    0.0000 C   0  0  0  0  0  0  0  0  0  0  0  0
    0.0000    0.0000    0.0000 N   0  0  0  0  0  0  0  0  0  0  0  0
    0.0000    0.0000    0.0000 C   0  0  0  0  0  0  0  0  0  0  0  0
    0.0000    0.0000    0.0000 C   0  0  0  0  0  0  0  0  0  0  0  0
    0.0000    0.0000    0.0000 C   0  0  0  0  0  0  0  0  0  0  0  0
    0.0000    0.0000    0.0000 C   0  0  0  0  0  0  0  0  0  0  0  0
    0.0000    0.0000    0.0000 C   0  0  0  0  0  0  0  0  0  0  0  0
    0.0000    0.0000    0.0000 C   0  0  0  0  0  0  0  0  0  0  0  0
    0.0000    0.0000    0.0000 C   0  0  0  0  0  0  0  0  0  0  0  0
    0.0000    0.0000    0.0000 N   0  0  0  0  0  0  0  0  0  0  0  0
    0.0000    0.0000    0.0000 O   0  0  0  0  0  0  0  0  0  0  0  0
    0.0000    0.0000    0.0000 O   0  0  0  0  0  0  0  0  0  0  0  0
  1  2  1  0
  2  3  2  0
  3  4  1  0
  4  5  1  0
  5  6  2  0
  6  7  1  0
  6  8  1  0
  8  9  1  0
  9 10  2  0
  9 11  1  0
 11 12  1  0
 12 13  1  0
 13 14  1  0
 14 15  2  0
 15 16  1  0
 16 17  2  0
 17 18  1  0
 18 19  2  0
 17 20  1  0
 20 21  2  0
 20 22  1  0
 12  2  1  0
 11  4  2  0
 19 14  1  0
M  CHG  2  20   1  22  -1
M  END
>  <pIC50>  (331) 
4.48

>  <ChEMBL_ID>  (331) 
CHEMBL401073

>  <document_journal>  (331) 
J. Med. Chem.

>  <bao_endpoint>  (331) 
BAO_0000190

>  <potential_duplicate>  (331) 
False

>  <uo_units>  (331) 
UO_0000065

>  <canonical_smiles>  (331) 
Cc1cc2N=C(N)NC(=O)c2n1Cc3ccc(cc3)[N+](=O)[O-]

>  <parent_molecule_chembl_id>  (331) 
CHEMBL401073

>  <assay_type>  (331) 
B

>  <src_id>  (331) 
1

>  <ligand_efficiency>  (331) 
{u'le': u'0.28', u'bei': u'14.97', u'sei': u'3.79', u'lle': u'2.65'}

>  <standard_flag>  (331) 
True

>  <molecule_chembl_id>  (331) 
CHEMBL401073

>  <target_organism>  (331) 
Homo sapiens

>  <standard_units>  (331) 
nM

>  <record_id>  (331) 
685289

>  <document_chembl_id>  (331) 
CHEMBL1140703

>  <bao_format>  (331) 
BAO_0000357

>  <data_validity_description>  (331) 
None

>  <activity_id>  (331) 
2064634

>  <standard_type>  (331) 
IC50

>  <target_chembl_id>  (331) 
CHEMBL202

>  <data_validity_comment>  (331) 
None

>  <published_value>  (331) 
33

>  <document_year>  (331) 
2008

>  <target_pref_name>  (331) 
Dihydrofolate reductase

>  <assay_chembl_id>  (331) 
CHEMBL926353

>  <standard_relation>  (331) 
=

>  <assay_description>  (331) 
Inhibition of human recombinant DHFR

>  <published_relation>  (331) 
=

>  <standard_value>  (331) 
33000

>  <qudt_units>  (331) 
http://www.openphacts.org/units/Nanomolar

>  <target_tax_id>  (331) 
9606

>  <bao_label>  (331) 
single protein format

>  <published_units>  (331) 
uM

>  <pchembl_value>  (331) 
4.48

>  <published_type>  (331) 
IC50

>  <activity_comment>  (331) 
None

$$$$

     RDKit          

 31 33  0  0  0  0  0  0  0  0999 V2000
    0.0000    0.0000    0.0000 C   0  0  0  0  0  0  0  0  0  0  0  0
    0.0000    0.0000    0.0000 C   0  0  0  0  0  0  0  0  0  0  0  0
    0.0000    0.0000    0.0000 C   0  0  0  0  0  0  0  0  0  0  0  0
    0.0000    0.0000    0.0000 C   0  0  0  0  0  0  0  0  0  0  0  0
    0.0000    0.0000    0.0000 N   0  0  0  0  0  0  0  0  0  0  0  0
    0.0000    0.0000    0.0000 C   0  0  0  0  0  0  0  0  0  0  0  0
    0.0000    0.0000    0.0000 N   0  0  0  0  0  0  0  0  0  0  0  0
    0.0000    0.0000    0.0000 N   0  0  0  0  0  0  0  0  0  0  0  0
    0.0000    0.0000    0.0000 C   0  0  0  0  0  0  0  0  0  0  0  0
    0.0000    0.0000    0.0000 O   0  0  0  0  0  0  0  0  0  0  0  0
    0.0000    0.0000    0.0000 C   0  0  0  0  0  0  0  0  0  0  0  0
    0.0000    0.0000    0.0000 N   0  0  0  0  0  0  0  0  0  0  0  0
    0.0000    0.0000    0.0000 C   0  0  0  0  0  0  0  0  0  0  0  0
    0.0000    0.0000    0.0000 C   0  0  0  0  0  0  0  0  0  0  0  0
    0.0000    0.0000    0.0000 C   0  0  0  0  0  0  0  0  0  0  0  0
    0.0000    0.0000    0.0000 C   0  0  0  0  0  0  0  0  0  0  0  0
    0.0000    0.0000    0.0000 C   0  0  0  0  0  0  0  0  0  0  0  0
    0.0000    0.0000    0.0000 C   0  0  0  0  0  0  0  0  0  0  0  0
    0.0000    0.0000    0.0000 C   0  0  0  0  0  0  0  0  0  0  0  0
    0.0000    0.0000    0.0000 C   0  0  0  0  0  0  0  0  0  0  0  0
    0.0000    0.0000    0.0000 O   0  0  0  0  0  0  0  0  0  0  0  0
    0.0000    0.0000    0.0000 N   0  0  0  0  0  0  0  0  0  0  0  0
    0.0000    0.0000    0.0000 C   0  0  0  0  0  0  0  0  0  0  0  0
    0.0000    0.0000    0.0000 C   0  0  0  0  0  0  0  0  0  0  0  0
    0.0000    0.0000    0.0000 C   0  0  0  0  0  0  0  0  0  0  0  0
    0.0000    0.0000    0.0000 C   0  0  0  0  0  0  0  0  0  0  0  0
    0.0000    0.0000    0.0000 O   0  0  0  0  0  0  0  0  0  0  0  0
    0.0000    0.0000    0.0000 O   0  0  0  0  0  0  0  0  0  0  0  0
    0.0000    0.0000    0.0000 C   0  0  0  0  0  0  0  0  0  0  0  0
    0.0000    0.0000    0.0000 O   0  0  0  0  0  0  0  0  0  0  0  0
    0.0000    0.0000    0.0000 O   0  0  0  0  0  0  0  0  0  0  0  0
  1  2  1  0
  2  3  2  0
  3  4  1  0
  4  5  1  0
  5  6  2  0
  6  7  1  0
  6  8  1  0
  8  9  1  0
  9 10  2  0
  9 11  1  0
 11 12  1  0
 12 13  1  0
 13 14  1  0
 14 15  2  0
 15 16  1  0
 16 17  2  0
 17 18  1  0
 18 19  2  0
 17 20  1  0
 20 21  2  0
 20 22  1  0
 22 23  1  0
 23 24  1  0
 24 25  1  0
 25 26  1  0
 26 27  2  0
 26 28  1  0
 23 29  1  0
 29 30  2  0
 29 31  1  0
 12  2  1  0
 11  4  2  0
 19 14  1  0
M  END
>  <pIC50>  (332) 
6.92

>  <ChEMBL_ID>  (332) 
CHEMBL252132

>  <document_journal>  (332) 
J. Med. Chem.

>  <bao_endpoint>  (332) 
BAO_0000190

>  <potential_duplicate>  (332) 
False

>  <uo_units>  (332) 
UO_0000065

>  <canonical_smiles>  (332) 
Cc1cc2N=C(N)NC(=O)c2n1Cc3ccc(cc3)C(=O)N[C@@H](CCC(=O)O)C(=O)O

>  <parent_molecule_chembl_id>  (332) 
CHEMBL252132

>  <assay_type>  (332) 
B

>  <src_id>  (332) 
1

>  <ligand_efficiency>  (332) 
{u'le': u'0.3', u'bei': u'16.19', u'sei': u'3.93', u'lle': u'6.1'}

>  <standard_flag>  (332) 
True

>  <molecule_chembl_id>  (332) 
CHEMBL252132

>  <target_organism>  (332) 
Homo sapiens

>  <standard_units>  (332) 
nM

>  <record_id>  (332) 
685283

>  <document_chembl_id>  (332) 
CHEMBL1140703

>  <bao_format>  (332) 
BAO_0000357

>  <data_validity_description>  (332) 
None

>  <activity_id>  (332) 
2064640

>  <standard_type>  (332) 
IC50

>  <target_chembl_id>  (332) 
CHEMBL202

>  <data_validity_comment>  (332) 
None

>  <published_value>  (332) 
0.12

>  <document_year>  (332) 
2008

>  <target_pref_name>  (332) 
Dihydrofolate reductase

>  <assay_chembl_id>  (332) 
CHEMBL926353

>  <standard_relation>  (332) 
=

>  <assay_description>  (332) 
Inhibition of human recombinant DHFR

>  <published_relation>  (332) 
=

>  <standard_value>  (332) 
120

>  <qudt_units>  (332) 
http://www.openphacts.org/units/Nanomolar

>  <target_tax_id>  (332) 
9606

>  <bao_label>  (332) 
single protein format

>  <published_units>  (332) 
uM

>  <pchembl_value>  (332) 
6.92

>  <published_type>  (332) 
IC50

>  <activity_comment>  (332) 
None

$$$$

     RDKit          

 22 24  0  0  0  0  0  0  0  0999 V2000
    0.0000    0.0000    0.0000 C   0  0  0  0  0  0  0  0  0  0  0  0
    0.0000    0.0000    0.0000 C   0  0  0  0  0  0  0  0  0  0  0  0
    0.0000    0.0000    0.0000 O   0  0  0  0  0  0  0  0  0  0  0  0
    0.0000    0.0000    0.0000 C   0  0  0  0  0  0  0  0  0  0  0  0
    0.0000    0.0000    0.0000 C   0  0  0  0  0  0  0  0  0  0  0  0
    0.0000    0.0000    0.0000 C   0  0  0  0  0  0  0  0  0  0  0  0
    0.0000    0.0000    0.0000 C   0  0  0  0  0  0  0  0  0  0  0  0
    0.0000    0.0000    0.0000 C   0  0  0  0  0  0  0  0  0  0  0  0
    0.0000    0.0000    0.0000 N   0  0  0  0  0  0  0  0  0  0  0  0
    0.0000    0.0000    0.0000 C   0  0  0  0  0  0  0  0  0  0  0  0
    0.0000    0.0000    0.0000 N   0  0  0  0  0  0  0  0  0  0  0  0
    0.0000    0.0000    0.0000 N   0  0  0  0  0  0  0  0  0  0  0  0
    0.0000    0.0000    0.0000 C   0  0  0  0  0  0  0  0  0  0  0  0
    0.0000    0.0000    0.0000 N   0  0  0  0  0  0  0  0  0  0  0  0
    0.0000    0.0000    0.0000 C   0  0  0  0  0  0  0  0  0  0  0  0
    0.0000    0.0000    0.0000 C   0  0  0  0  0  0  0  0  0  0  0  0
    0.0000    0.0000    0.0000 C   0  0  0  0  0  0  0  0  0  0  0  0
    0.0000    0.0000    0.0000 C   0  0  0  0  0  0  0  0  0  0  0  0
    0.0000    0.0000    0.0000 C   0  0  0  0  0  0  0  0  0  0  0  0
    0.0000    0.0000    0.0000 C   0  0  0  0  0  0  0  0  0  0  0  0
    0.0000    0.0000    0.0000 Cl  0  0  0  0  0  0  0  0  0  0  0  0
    0.0000    0.0000    0.0000 C   0  0  0  0  0  0  0  0  0  0  0  0
  1  2  1  0
  2  3  1  0
  3  4  1  0
  4  5  2  0
  5  6  1  0
  6  7  2  0
  7  8  1  0
  8  9  2  0
  9 10  1  0
 10 11  1  0
 10 12  2  0
 12 13  1  0
 13 14  1  0
 13 15  2  0
  2 16  1  0
 16 17  2  0
 17 18  1  0
 18 19  2  0
 19 20  1  0
 20 21  1  0
 20 22  2  0
 15  4  1  0
 15  8  1  0
 22 16  1  0
M  END
>  <pIC50>  (333) 
7.6

>  <ChEMBL_ID>  (333) 
CHEMBL253976

>  <document_journal>  (333) 
J. Med. Chem.

>  <bao_endpoint>  (333) 
BAO_0000190

>  <potential_duplicate>  (333) 
False

>  <uo_units>  (333) 
UO_0000065

>  <canonical_smiles>  (333) 
C[C@H](Oc1cccc2nc(N)nc(N)c12)c3cccc(Cl)c3

>  <parent_molecule_chembl_id>  (333) 
CHEMBL253976

>  <assay_type>  (333) 
B

>  <src_id>  (333) 
1

>  <ligand_efficiency>  (333) 
{u'le': u'0.47', u'bei': u'24.15', u'sei': u'8.73', u'lle': u'4.04'}

>  <standard_flag>  (333) 
True

>  <molecule_chembl_id>  (333) 
CHEMBL253976

>  <target_organism>  (333) 
Homo sapiens

>  <standard_units>  (333) 
nM

>  <record_id>  (333) 
686468

>  <document_chembl_id>  (333) 
CHEMBL1140748

>  <bao_format>  (333) 
BAO_0000357

>  <data_validity_description>  (333) 
None

>  <activity_id>  (333) 
2069332

>  <standard_type>  (333) 
IC50

>  <target_chembl_id>  (333) 
CHEMBL202

>  <data_validity_comment>  (333) 
None

>  <published_value>  (333) 
25

>  <document_year>  (333) 
2008

>  <target_pref_name>  (333) 
Dihydrofolate reductase

>  <assay_chembl_id>  (333) 
CHEMBL944098

>  <standard_relation>  (333) 
=

>  <assay_description>  (333) 
Inhibition of human recombinant DHFR

>  <published_relation>  (333) 
=

>  <standard_value>  (333) 
25

>  <qudt_units>  (333) 
http://www.openphacts.org/units/Nanomolar

>  <target_tax_id>  (333) 
9606

>  <bao_label>  (333) 
single protein format

>  <published_units>  (333) 
nM

>  <pchembl_value>  (333) 
7.6

>  <published_type>  (333) 
IC50

>  <activity_comment>  (333) 
None

$$$$

     RDKit          

 22 24  0  0  0  0  0  0  0  0999 V2000
    0.0000    0.0000    0.0000 C   0  0  0  0  0  0  0  0  0  0  0  0
    0.0000    0.0000    0.0000 C   0  0  0  0  0  0  0  0  0  0  0  0
    0.0000    0.0000    0.0000 O   0  0  0  0  0  0  0  0  0  0  0  0
    0.0000    0.0000    0.0000 C   0  0  0  0  0  0  0  0  0  0  0  0
    0.0000    0.0000    0.0000 C   0  0  0  0  0  0  0  0  0  0  0  0
    0.0000    0.0000    0.0000 C   0  0  0  0  0  0  0  0  0  0  0  0
    0.0000    0.0000    0.0000 C   0  0  0  0  0  0  0  0  0  0  0  0
    0.0000    0.0000    0.0000 C   0  0  0  0  0  0  0  0  0  0  0  0
    0.0000    0.0000    0.0000 N   0  0  0  0  0  0  0  0  0  0  0  0
    0.0000    0.0000    0.0000 C   0  0  0  0  0  0  0  0  0  0  0  0
    0.0000    0.0000    0.0000 N   0  0  0  0  0  0  0  0  0  0  0  0
    0.0000    0.0000    0.0000 N   0  0  0  0  0  0  0  0  0  0  0  0
    0.0000    0.0000    0.0000 C   0  0  0  0  0  0  0  0  0  0  0  0
    0.0000    0.0000    0.0000 N   0  0  0  0  0  0  0  0  0  0  0  0
    0.0000    0.0000    0.0000 C   0  0  0  0  0  0  0  0  0  0  0  0
    0.0000    0.0000    0.0000 C   0  0  0  0  0  0  0  0  0  0  0  0
    0.0000    0.0000    0.0000 C   0  0  0  0  0  0  0  0  0  0  0  0
    0.0000    0.0000    0.0000 C   0  0  0  0  0  0  0  0  0  0  0  0
    0.0000    0.0000    0.0000 C   0  0  0  0  0  0  0  0  0  0  0  0
    0.0000    0.0000    0.0000 C   0  0  0  0  0  0  0  0  0  0  0  0
    0.0000    0.0000    0.0000 Cl  0  0  0  0  0  0  0  0  0  0  0  0
    0.0000    0.0000    0.0000 C   0  0  0  0  0  0  0  0  0  0  0  0
  1  2  1  0
  2  3  1  0
  3  4  1  0
  4  5  2  0
  5  6  1  0
  6  7  2  0
  7  8  1  0
  8  9  2  0
  9 10  1  0
 10 11  1  0
 10 12  2  0
 12 13  1  0
 13 14  1  0
 13 15  2  0
  2 16  1  0
 16 17  2  0
 17 18  1  0
 18 19  2  0
 19 20  1  0
 20 21  1  0
 20 22  2  0
 15  4  1  0
 15  8  1  0
 22 16  1  0
M  END
>  <pIC50>  (334) 
7.47

>  <ChEMBL_ID>  (334) 
CHEMBL398416

>  <document_journal>  (334) 
J. Med. Chem.

>  <bao_endpoint>  (334) 
BAO_0000190

>  <potential_duplicate>  (334) 
False

>  <uo_units>  (334) 
UO_0000065

>  <canonical_smiles>  (334) 
CC(Oc1cccc2nc(N)nc(N)c12)c3cccc(Cl)c3

>  <parent_molecule_chembl_id>  (334) 
CHEMBL398416

>  <assay_type>  (334) 
B

>  <src_id>  (334) 
1

>  <ligand_efficiency>  (334) 
{u'le': u'0.46', u'bei': u'23.73', u'sei': u'8.58', u'lle': u'3.91'}

>  <standard_flag>  (334) 
True

>  <molecule_chembl_id>  (334) 
CHEMBL398416

>  <target_organism>  (334) 
Homo sapiens

>  <standard_units>  (334) 
nM

>  <record_id>  (334) 
686466

>  <document_chembl_id>  (334) 
CHEMBL1140748

>  <bao_format>  (334) 
BAO_0000357

>  <data_validity_description>  (334) 
None

>  <activity_id>  (334) 
2069333

>  <standard_type>  (334) 
IC50

>  <target_chembl_id>  (334) 
CHEMBL202

>  <data_validity_comment>  (334) 
None

>  <published_value>  (334) 
34

>  <document_year>  (334) 
2008

>  <target_pref_name>  (334) 
Dihydrofolate reductase

>  <assay_chembl_id>  (334) 
CHEMBL944098

>  <standard_relation>  (334) 
=

>  <assay_description>  (334) 
Inhibition of human recombinant DHFR

>  <published_relation>  (334) 
=

>  <standard_value>  (334) 
34

>  <qudt_units>  (334) 
http://www.openphacts.org/units/Nanomolar

>  <target_tax_id>  (334) 
9606

>  <bao_label>  (334) 
single protein format

>  <published_units>  (334) 
nM

>  <pchembl_value>  (334) 
7.47

>  <published_type>  (334) 
IC50

>  <activity_comment>  (334) 
None

$$$$

     RDKit          

 21 23  0  0  0  0  0  0  0  0999 V2000
    0.0000    0.0000    0.0000 N   0  0  0  0  0  0  0  0  0  0  0  0
    0.0000    0.0000    0.0000 C   0  0  0  0  0  0  0  0  0  0  0  0
    0.0000    0.0000    0.0000 N   0  0  0  0  0  0  0  0  0  0  0  0
    0.0000    0.0000    0.0000 C   0  0  0  0  0  0  0  0  0  0  0  0
    0.0000    0.0000    0.0000 N   0  0  0  0  0  0  0  0  0  0  0  0
    0.0000    0.0000    0.0000 C   0  0  0  0  0  0  0  0  0  0  0  0
    0.0000    0.0000    0.0000 C   0  0  0  0  0  0  0  0  0  0  0  0
    0.0000    0.0000    0.0000 O   0  0  0  0  0  0  0  0  0  0  0  0
    0.0000    0.0000    0.0000 C   0  0  0  0  0  0  0  0  0  0  0  0
    0.0000    0.0000    0.0000 C   0  0  0  0  0  0  0  0  0  0  0  0
    0.0000    0.0000    0.0000 C   0  0  0  0  0  0  0  0  0  0  0  0
    0.0000    0.0000    0.0000 C   0  0  0  0  0  0  0  0  0  0  0  0
    0.0000    0.0000    0.0000 C   0  0  0  0  0  0  0  0  0  0  0  0
    0.0000    0.0000    0.0000 C   0  0  0  0  0  0  0  0  0  0  0  0
    0.0000    0.0000    0.0000 Cl  0  0  0  0  0  0  0  0  0  0  0  0
    0.0000    0.0000    0.0000 C   0  0  0  0  0  0  0  0  0  0  0  0
    0.0000    0.0000    0.0000 C   0  0  0  0  0  0  0  0  0  0  0  0
    0.0000    0.0000    0.0000 C   0  0  0  0  0  0  0  0  0  0  0  0
    0.0000    0.0000    0.0000 C   0  0  0  0  0  0  0  0  0  0  0  0
    0.0000    0.0000    0.0000 C   0  0  0  0  0  0  0  0  0  0  0  0
    0.0000    0.0000    0.0000 N   0  0  0  0  0  0  0  0  0  0  0  0
  1  2  1  0
  2  3  2  0
  3  4  1  0
  4  5  1  0
  4  6  2  0
  6  7  1  0
  7  8  1  0
  8  9  1  0
  9 10  1  0
 10 11  2  0
 11 12  1  0
 12 13  2  0
 13 14  1  0
 14 15  1  0
 14 16  2  0
  7 17  2  0
 17 18  1  0
 18 19  2  0
 19 20  1  0
 20 21  2  0
 21  2  1  0
 20  6  1  0
 16 10  1  0
M  END
>  <pIC50>  (335) 
4.01

>  <ChEMBL_ID>  (335) 
CHEMBL250231

>  <document_journal>  (335) 
J. Med. Chem.

>  <bao_endpoint>  (335) 
BAO_0000190

>  <potential_duplicate>  (335) 
False

>  <uo_units>  (335) 
UO_0000065

>  <canonical_smiles>  (335) 
Nc1nc(N)c2c(OCc3cccc(Cl)c3)cccc2n1

>  <parent_molecule_chembl_id>  (335) 
CHEMBL250231

>  <assay_type>  (335) 
B

>  <src_id>  (335) 
1

>  <ligand_efficiency>  (335) 
{u'le': u'0.26', u'bei': u'13.33', u'sei': u'4.61', u'lle': u'0.82'}

>  <standard_flag>  (335) 
True

>  <molecule_chembl_id>  (335) 
CHEMBL250231

>  <target_organism>  (335) 
Homo sapiens

>  <standard_units>  (335) 
nM

>  <record_id>  (335) 
686429

>  <document_chembl_id>  (335) 
CHEMBL1140748

>  <bao_format>  (335) 
BAO_0000357

>  <data_validity_description>  (335) 
None

>  <activity_id>  (335) 
2069334

>  <standard_type>  (335) 
IC50

>  <target_chembl_id>  (335) 
CHEMBL202

>  <data_validity_comment>  (335) 
None

>  <published_value>  (335) 
98

>  <document_year>  (335) 
2008

>  <target_pref_name>  (335) 
Dihydrofolate reductase

>  <assay_chembl_id>  (335) 
CHEMBL944098

>  <standard_relation>  (335) 
=

>  <assay_description>  (335) 
Inhibition of human recombinant DHFR

>  <published_relation>  (335) 
=

>  <standard_value>  (335) 
98000

>  <qudt_units>  (335) 
http://www.openphacts.org/units/Nanomolar

>  <target_tax_id>  (335) 
9606

>  <bao_label>  (335) 
single protein format

>  <published_units>  (335) 
uM

>  <pchembl_value>  (335) 
4.01

>  <published_type>  (335) 
IC50

>  <activity_comment>  (335) 
None

$$$$

     RDKit          

 22 24  0  0  0  0  0  0  0  0999 V2000
    0.0000    0.0000    0.0000 N   0  0  0  0  0  0  0  0  0  0  0  0
    0.0000    0.0000    0.0000 C   0  0  0  0  0  0  0  0  0  0  0  0
    0.0000    0.0000    0.0000 N   0  0  0  0  0  0  0  0  0  0  0  0
    0.0000    0.0000    0.0000 C   0  0  0  0  0  0  0  0  0  0  0  0
    0.0000    0.0000    0.0000 N   0  0  0  0  0  0  0  0  0  0  0  0
    0.0000    0.0000    0.0000 C   0  0  0  0  0  0  0  0  0  0  0  0
    0.0000    0.0000    0.0000 C   0  0  0  0  0  0  0  0  0  0  0  0
    0.0000    0.0000    0.0000 C   0  0  0  0  0  0  0  0  0  0  0  0
    0.0000    0.0000    0.0000 O   0  0  0  0  0  0  0  0  0  0  0  0
    0.0000    0.0000    0.0000 C   0  0  0  0  0  0  0  0  0  0  0  0
    0.0000    0.0000    0.0000 C   0  0  0  0  0  0  0  0  0  0  0  0
    0.0000    0.0000    0.0000 C   0  0  0  0  0  0  0  0  0  0  0  0
    0.0000    0.0000    0.0000 C   0  0  0  0  0  0  0  0  0  0  0  0
    0.0000    0.0000    0.0000 F   0  0  0  0  0  0  0  0  0  0  0  0
    0.0000    0.0000    0.0000 C   0  0  0  0  0  0  0  0  0  0  0  0
    0.0000    0.0000    0.0000 C   0  0  0  0  0  0  0  0  0  0  0  0
    0.0000    0.0000    0.0000 F   0  0  0  0  0  0  0  0  0  0  0  0
    0.0000    0.0000    0.0000 C   0  0  0  0  0  0  0  0  0  0  0  0
    0.0000    0.0000    0.0000 C   0  0  0  0  0  0  0  0  0  0  0  0
    0.0000    0.0000    0.0000 C   0  0  0  0  0  0  0  0  0  0  0  0
    0.0000    0.0000    0.0000 C   0  0  0  0  0  0  0  0  0  0  0  0
    0.0000    0.0000    0.0000 N   0  0  0  0  0  0  0  0  0  0  0  0
  1  2  1  0
  2  3  2  0
  3  4  1  0
  4  5  1  0
  4  6  2  0
  6  7  1  0
  7  8  1  0
  8  9  1  0
  9 10  1  0
 10 11  2  0
 11 12  1  0
 12 13  2  0
 13 14  1  0
 13 15  1  0
 15 16  2  0
 16 17  1  0
  7 18  2  0
 18 19  1  0
 19 20  2  0
 20 21  1  0
 21 22  2  0
 22  2  1  0
 21  6  1  0
 16 10  1  0
M  END
>  <pIC50>  (336) 
4.97

>  <ChEMBL_ID>  (336) 
CHEMBL251428

>  <document_journal>  (336) 
J. Med. Chem.

>  <bao_endpoint>  (336) 
BAO_0000190

>  <potential_duplicate>  (336) 
False

>  <uo_units>  (336) 
UO_0000065

>  <canonical_smiles>  (336) 
Nc1nc(N)c2c(COc3ccc(F)cc3F)cccc2n1

>  <parent_molecule_chembl_id>  (336) 
CHEMBL251428

>  <assay_type>  (336) 
B

>  <src_id>  (336) 
1

>  <ligand_efficiency>  (336) 
{u'le': u'0.31', u'bei': u'16.44', u'sei': u'5.71', u'lle': u'2.04'}

>  <standard_flag>  (336) 
True

>  <molecule_chembl_id>  (336) 
CHEMBL251428

>  <target_organism>  (336) 
Homo sapiens

>  <standard_units>  (336) 
nM

>  <record_id>  (336) 
686496

>  <document_chembl_id>  (336) 
CHEMBL1140748

>  <bao_format>  (336) 
BAO_0000357

>  <data_validity_description>  (336) 
None

>  <activity_id>  (336) 
2069337

>  <standard_type>  (336) 
IC50

>  <target_chembl_id>  (336) 
CHEMBL202

>  <data_validity_comment>  (336) 
None

>  <published_value>  (336) 
10.7

>  <document_year>  (336) 
2008

>  <target_pref_name>  (336) 
Dihydrofolate reductase

>  <assay_chembl_id>  (336) 
CHEMBL944098

>  <standard_relation>  (336) 
=

>  <assay_description>  (336) 
Inhibition of human recombinant DHFR

>  <published_relation>  (336) 
=

>  <standard_value>  (336) 
10700

>  <qudt_units>  (336) 
http://www.openphacts.org/units/Nanomolar

>  <target_tax_id>  (336) 
9606

>  <bao_label>  (336) 
single protein format

>  <published_units>  (336) 
uM

>  <pchembl_value>  (336) 
4.97

>  <published_type>  (336) 
IC50

>  <activity_comment>  (336) 
None

$$$$

     RDKit          

 21 23  0  0  0  0  0  0  0  0999 V2000
    0.0000    0.0000    0.0000 N   0  0  0  0  0  0  0  0  0  0  0  0
    0.0000    0.0000    0.0000 C   0  0  0  0  0  0  0  0  0  0  0  0
    0.0000    0.0000    0.0000 N   0  0  0  0  0  0  0  0  0  0  0  0
    0.0000    0.0000    0.0000 C   0  0  0  0  0  0  0  0  0  0  0  0
    0.0000    0.0000    0.0000 N   0  0  0  0  0  0  0  0  0  0  0  0
    0.0000    0.0000    0.0000 C   0  0  0  0  0  0  0  0  0  0  0  0
    0.0000    0.0000    0.0000 C   0  0  0  0  0  0  0  0  0  0  0  0
    0.0000    0.0000    0.0000 C   0  0  0  0  0  0  0  0  0  0  0  0
    0.0000    0.0000    0.0000 O   0  0  0  0  0  0  0  0  0  0  0  0
    0.0000    0.0000    0.0000 C   0  0  0  0  0  0  0  0  0  0  0  0
    0.0000    0.0000    0.0000 C   0  0  0  0  0  0  0  0  0  0  0  0
    0.0000    0.0000    0.0000 C   0  0  0  0  0  0  0  0  0  0  0  0
    0.0000    0.0000    0.0000 C   0  0  0  0  0  0  0  0  0  0  0  0
    0.0000    0.0000    0.0000 C   0  0  0  0  0  0  0  0  0  0  0  0
    0.0000    0.0000    0.0000 C   0  0  0  0  0  0  0  0  0  0  0  0
    0.0000    0.0000    0.0000 F   0  0  0  0  0  0  0  0  0  0  0  0
    0.0000    0.0000    0.0000 C   0  0  0  0  0  0  0  0  0  0  0  0
    0.0000    0.0000    0.0000 C   0  0  0  0  0  0  0  0  0  0  0  0
    0.0000    0.0000    0.0000 C   0  0  0  0  0  0  0  0  0  0  0  0
    0.0000    0.0000    0.0000 C   0  0  0  0  0  0  0  0  0  0  0  0
    0.0000    0.0000    0.0000 N   0  0  0  0  0  0  0  0  0  0  0  0
  1  2  1  0
  2  3  2  0
  3  4  1  0
  4  5  1  0
  4  6  2  0
  6  7  1  0
  7  8  1  0
  8  9  1  0
  9 10  1  0
 10 11  2  0
 11 12  1  0
 12 13  2  0
 13 14  1  0
 14 15  2  0
 15 16  1  0
  7 17  2  0
 17 18  1  0
 18 19  2  0
 19 20  1  0
 20 21  2  0
 21  2  1  0
 20  6  1  0
 15 10  1  0
M  END
>  <pIC50>  (337) 
7.41

>  <ChEMBL_ID>  (337) 
CHEMBL251906

>  <document_journal>  (337) 
J. Med. Chem.

>  <bao_endpoint>  (337) 
BAO_0000190

>  <potential_duplicate>  (337) 
False

>  <uo_units>  (337) 
UO_0000065

>  <canonical_smiles>  (337) 
Nc1nc(N)c2c(COc3ccccc3F)cccc2n1

>  <parent_molecule_chembl_id>  (337) 
CHEMBL251906

>  <assay_type>  (337) 
B

>  <src_id>  (337) 
1

>  <ligand_efficiency>  (337) 
{u'le': u'0.48', u'bei': u'26.06', u'sei': u'8.51', u'lle': u'4.68'}

>  <standard_flag>  (337) 
True

>  <molecule_chembl_id>  (337) 
CHEMBL251906

>  <target_organism>  (337) 
Homo sapiens

>  <standard_units>  (337) 
nM

>  <record_id>  (337) 
686491

>  <document_chembl_id>  (337) 
CHEMBL1140748

>  <bao_format>  (337) 
BAO_0000357

>  <data_validity_description>  (337) 
None

>  <activity_id>  (337) 
2069338

>  <standard_type>  (337) 
IC50

>  <target_chembl_id>  (337) 
CHEMBL202

>  <data_validity_comment>  (337) 
None

>  <published_value>  (337) 
39

>  <document_year>  (337) 
2008

>  <target_pref_name>  (337) 
Dihydrofolate reductase

>  <assay_chembl_id>  (337) 
CHEMBL944098

>  <standard_relation>  (337) 
=

>  <assay_description>  (337) 
Inhibition of human recombinant DHFR

>  <published_relation>  (337) 
=

>  <standard_value>  (337) 
39

>  <qudt_units>  (337) 
http://www.openphacts.org/units/Nanomolar

>  <target_tax_id>  (337) 
9606

>  <bao_label>  (337) 
single protein format

>  <published_units>  (337) 
nM

>  <pchembl_value>  (337) 
7.41

>  <published_type>  (337) 
IC50

>  <activity_comment>  (337) 
None

$$$$

     RDKit          

 21 23  0  0  0  0  0  0  0  0999 V2000
    0.0000    0.0000    0.0000 N   0  0  0  0  0  0  0  0  0  0  0  0
    0.0000    0.0000    0.0000 C   0  0  0  0  0  0  0  0  0  0  0  0
    0.0000    0.0000    0.0000 N   0  0  0  0  0  0  0  0  0  0  0  0
    0.0000    0.0000    0.0000 C   0  0  0  0  0  0  0  0  0  0  0  0
    0.0000    0.0000    0.0000 N   0  0  0  0  0  0  0  0  0  0  0  0
    0.0000    0.0000    0.0000 C   0  0  0  0  0  0  0  0  0  0  0  0
    0.0000    0.0000    0.0000 C   0  0  0  0  0  0  0  0  0  0  0  0
    0.0000    0.0000    0.0000 C   0  0  0  0  0  0  0  0  0  0  0  0
    0.0000    0.0000    0.0000 O   0  0  0  0  0  0  0  0  0  0  0  0
    0.0000    0.0000    0.0000 C   0  0  0  0  0  0  0  0  0  0  0  0
    0.0000    0.0000    0.0000 C   0  0  0  0  0  0  0  0  0  0  0  0
    0.0000    0.0000    0.0000 C   0  0  0  0  0  0  0  0  0  0  0  0
    0.0000    0.0000    0.0000 C   0  0  0  0  0  0  0  0  0  0  0  0
    0.0000    0.0000    0.0000 C   0  0  0  0  0  0  0  0  0  0  0  0
    0.0000    0.0000    0.0000 Cl  0  0  0  0  0  0  0  0  0  0  0  0
    0.0000    0.0000    0.0000 C   0  0  0  0  0  0  0  0  0  0  0  0
    0.0000    0.0000    0.0000 C   0  0  0  0  0  0  0  0  0  0  0  0
    0.0000    0.0000    0.0000 C   0  0  0  0  0  0  0  0  0  0  0  0
    0.0000    0.0000    0.0000 C   0  0  0  0  0  0  0  0  0  0  0  0
    0.0000    0.0000    0.0000 C   0  0  0  0  0  0  0  0  0  0  0  0
    0.0000    0.0000    0.0000 N   0  0  0  0  0  0  0  0  0  0  0  0
  1  2  1  0
  2  3  2  0
  3  4  1  0
  4  5  1  0
  4  6  2  0
  6  7  1  0
  7  8  1  0
  8  9  1  0
  9 10  1  0
 10 11  2  0
 11 12  1  0
 12 13  2  0
 13 14  1  0
 14 15  1  0
 14 16  2  0
  7 17  2  0
 17 18  1  0
 18 19  2  0
 19 20  1  0
 20 21  2  0
 21  2  1  0
 20  6  1  0
 16 10  1  0
M  END
>  <pIC50>  (338) 
5.08

>  <ChEMBL_ID>  (338) 
CHEMBL255019

>  <document_journal>  (338) 
J. Med. Chem.

>  <bao_endpoint>  (338) 
BAO_0000190

>  <potential_duplicate>  (338) 
False

>  <uo_units>  (338) 
UO_0000065

>  <canonical_smiles>  (338) 
Nc1nc(N)c2c(COc3cccc(Cl)c3)cccc2n1

>  <parent_molecule_chembl_id>  (338) 
CHEMBL255019

>  <assay_type>  (338) 
B

>  <src_id>  (338) 
1

>  <ligand_efficiency>  (338) 
{u'le': u'0.33', u'bei': u'16.88', u'sei': u'5.83', u'lle': u'1.89'}

>  <standard_flag>  (338) 
True

>  <molecule_chembl_id>  (338) 
CHEMBL255019

>  <target_organism>  (338) 
Homo sapiens

>  <standard_units>  (338) 
nM

>  <record_id>  (338) 
686488

>  <document_chembl_id>  (338) 
CHEMBL1140748

>  <bao_format>  (338) 
BAO_0000357

>  <data_validity_description>  (338) 
None

>  <activity_id>  (338) 
2069339

>  <standard_type>  (338) 
IC50

>  <target_chembl_id>  (338) 
CHEMBL202

>  <data_validity_comment>  (338) 
None

>  <published_value>  (338) 
8.4

>  <document_year>  (338) 
2008

>  <target_pref_name>  (338) 
Dihydrofolate reductase

>  <assay_chembl_id>  (338) 
CHEMBL944098

>  <standard_relation>  (338) 
=

>  <assay_description>  (338) 
Inhibition of human recombinant DHFR

>  <published_relation>  (338) 
=

>  <standard_value>  (338) 
8400

>  <qudt_units>  (338) 
http://www.openphacts.org/units/Nanomolar

>  <target_tax_id>  (338) 
9606

>  <bao_label>  (338) 
single protein format

>  <published_units>  (338) 
uM

>  <pchembl_value>  (338) 
5.08

>  <published_type>  (338) 
IC50

>  <activity_comment>  (338) 
None

$$$$

     RDKit          

 21 23  0  0  0  0  0  0  0  0999 V2000
    0.0000    0.0000    0.0000 N   0  0  0  0  0  0  0  0  0  0  0  0
    0.0000    0.0000    0.0000 C   0  0  0  0  0  0  0  0  0  0  0  0
    0.0000    0.0000    0.0000 N   0  0  0  0  0  0  0  0  0  0  0  0
    0.0000    0.0000    0.0000 C   0  0  0  0  0  0  0  0  0  0  0  0
    0.0000    0.0000    0.0000 N   0  0  0  0  0  0  0  0  0  0  0  0
    0.0000    0.0000    0.0000 C   0  0  0  0  0  0  0  0  0  0  0  0
    0.0000    0.0000    0.0000 C   0  0  0  0  0  0  0  0  0  0  0  0
    0.0000    0.0000    0.0000 O   0  0  0  0  0  0  0  0  0  0  0  0
    0.0000    0.0000    0.0000 C   0  0  0  0  0  0  0  0  0  0  0  0
    0.0000    0.0000    0.0000 C   0  0  0  0  0  0  0  0  0  0  0  0
    0.0000    0.0000    0.0000 C   0  0  0  0  0  0  0  0  0  0  0  0
    0.0000    0.0000    0.0000 C   0  0  0  0  0  0  0  0  0  0  0  0
    0.0000    0.0000    0.0000 C   0  0  0  0  0  0  0  0  0  0  0  0
    0.0000    0.0000    0.0000 C   0  0  0  0  0  0  0  0  0  0  0  0
    0.0000    0.0000    0.0000 C   0  0  0  0  0  0  0  0  0  0  0  0
    0.0000    0.0000    0.0000 F   0  0  0  0  0  0  0  0  0  0  0  0
    0.0000    0.0000    0.0000 C   0  0  0  0  0  0  0  0  0  0  0  0
    0.0000    0.0000    0.0000 C   0  0  0  0  0  0  0  0  0  0  0  0
    0.0000    0.0000    0.0000 C   0  0  0  0  0  0  0  0  0  0  0  0
    0.0000    0.0000    0.0000 C   0  0  0  0  0  0  0  0  0  0  0  0
    0.0000    0.0000    0.0000 N   0  0  0  0  0  0  0  0  0  0  0  0
  1  2  1  0
  2  3  2  0
  3  4  1  0
  4  5  1  0
  4  6  2  0
  6  7  1  0
  7  8  1  0
  8  9  1  0
  9 10  1  0
 10 11  2  0
 11 12  1  0
 12 13  2  0
 13 14  1  0
 14 15  2  0
 15 16  1  0
  7 17  2  0
 17 18  1  0
 18 19  2  0
 19 20  1  0
 20 21  2  0
 21  2  1  0
 20  6  1  0
 15 10  1  0
M  END
>  <pIC50>  (339) 
9.41

>  <ChEMBL_ID>  (339) 
CHEMBL251427

>  <document_journal>  (339) 
J. Med. Chem.

>  <bao_endpoint>  (339) 
BAO_0000190

>  <potential_duplicate>  (339) 
False

>  <uo_units>  (339) 
UO_0000065

>  <canonical_smiles>  (339) 
Nc1nc(N)c2c(OCc3ccccc3F)cccc2n1

>  <parent_molecule_chembl_id>  (339) 
CHEMBL251427

>  <assay_type>  (339) 
B

>  <src_id>  (339) 
1

>  <ligand_efficiency>  (339) 
{u'le': u'0.61', u'bei': u'33.1', u'sei': u'10.81', u'lle': u'6.68'}

>  <standard_flag>  (339) 
True

>  <molecule_chembl_id>  (339) 
CHEMBL251427

>  <target_organism>  (339) 
Homo sapiens

>  <standard_units>  (339) 
nM

>  <record_id>  (339) 
686434

>  <document_chembl_id>  (339) 
CHEMBL1140748

>  <bao_format>  (339) 
BAO_0000357

>  <data_validity_description>  (339) 
None

>  <activity_id>  (339) 
2069341

>  <standard_type>  (339) 
IC50

>  <target_chembl_id>  (339) 
CHEMBL202

>  <data_validity_comment>  (339) 
None

>  <published_value>  (339) 
0.39

>  <document_year>  (339) 
2008

>  <target_pref_name>  (339) 
Dihydrofolate reductase

>  <assay_chembl_id>  (339) 
CHEMBL944098

>  <standard_relation>  (339) 
=

>  <assay_description>  (339) 
Inhibition of human recombinant DHFR

>  <published_relation>  (339) 
=

>  <standard_value>  (339) 
0.39

>  <qudt_units>  (339) 
http://www.openphacts.org/units/Nanomolar

>  <target_tax_id>  (339) 
9606

>  <bao_label>  (339) 
single protein format

>  <published_units>  (339) 
nM

>  <pchembl_value>  (339) 
9.41

>  <published_type>  (339) 
IC50

>  <activity_comment>  (339) 
None

$$$$

     RDKit          

 28 31  0  0  0  0  0  0  0  0999 V2000
    0.0000    0.0000    0.0000 N   0  0  0  0  0  0  0  0  0  0  0  0
    0.0000    0.0000    0.0000 C   0  0  0  0  0  0  0  0  0  0  0  0
    0.0000    0.0000    0.0000 N   0  0  0  0  0  0  0  0  0  0  0  0
    0.0000    0.0000    0.0000 C   0  0  0  0  0  0  0  0  0  0  0  0
    0.0000    0.0000    0.0000 N   0  0  0  0  0  0  0  0  0  0  0  0
    0.0000    0.0000    0.0000 C   0  0  0  0  0  0  0  0  0  0  0  0
    0.0000    0.0000    0.0000 C   0  0  0  0  0  0  0  0  0  0  0  0
    0.0000    0.0000    0.0000 O   0  0  0  0  0  0  0  0  0  0  0  0
    0.0000    0.0000    0.0000 C   0  0  0  0  0  0  0  0  0  0  0  0
    0.0000    0.0000    0.0000 C   0  0  0  0  0  0  0  0  0  0  0  0
    0.0000    0.0000    0.0000 C   0  0  0  0  0  0  0  0  0  0  0  0
    0.0000    0.0000    0.0000 C   0  0  0  0  0  0  0  0  0  0  0  0
    0.0000    0.0000    0.0000 N   0  0  0  0  0  0  0  0  0  0  0  0
    0.0000    0.0000    0.0000 C   0  0  0  0  0  0  0  0  0  0  0  0
    0.0000    0.0000    0.0000 C   0  0  0  0  0  0  0  0  0  0  0  0
    0.0000    0.0000    0.0000 C   0  0  0  0  0  0  0  0  0  0  0  0
    0.0000    0.0000    0.0000 C   0  0  0  0  0  0  0  0  0  0  0  0
    0.0000    0.0000    0.0000 C   0  0  0  0  0  0  0  0  0  0  0  0
    0.0000    0.0000    0.0000 C   0  0  0  0  0  0  0  0  0  0  0  0
    0.0000    0.0000    0.0000 Cl  0  0  0  0  0  0  0  0  0  0  0  0
    0.0000    0.0000    0.0000 C   0  0  0  0  0  0  0  0  0  0  0  0
    0.0000    0.0000    0.0000 C   0  0  0  0  0  0  0  0  0  0  0  0
    0.0000    0.0000    0.0000 C   0  0  0  0  0  0  0  0  0  0  0  0
    0.0000    0.0000    0.0000 C   0  0  0  0  0  0  0  0  0  0  0  0
    0.0000    0.0000    0.0000 C   0  0  0  0  0  0  0  0  0  0  0  0
    0.0000    0.0000    0.0000 C   0  0  0  0  0  0  0  0  0  0  0  0
    0.0000    0.0000    0.0000 C   0  0  0  0  0  0  0  0  0  0  0  0
    0.0000    0.0000    0.0000 N   0  0  0  0  0  0  0  0  0  0  0  0
  1  2  1  0
  2  3  2  0
  3  4  1  0
  4  5  1  0
  4  6  2  0
  6  7  1  0
  7  8  1  0
  8  9  1  0
  9 10  1  0
 10 11  1  0
 11 12  1  0
 12 13  1  0
 13 14  1  0
 14 15  1  0
 15 16  2  0
 16 17  1  0
 17 18  2  0
 18 19  1  0
 19 20  1  0
 19 21  2  0
 13 22  1  0
 22 23  1  0
  7 24  2  0
 24 25  1  0
 25 26  2  0
 26 27  1  0
 27 28  2  0
 28  2  1  0
 27  6  1  0
 23 10  1  0
 21 15  1  0
M  END
>  <pIC50>  (340) 
4.26

>  <ChEMBL_ID>  (340) 
CHEMBL251430

>  <document_journal>  (340) 
J. Med. Chem.

>  <bao_endpoint>  (340) 
BAO_0000190

>  <potential_duplicate>  (340) 
False

>  <uo_units>  (340) 
UO_0000065

>  <canonical_smiles>  (340) 
Nc1nc(N)c2c(OCC3CCN(Cc4cccc(Cl)c4)CC3)cccc2n1

>  <parent_molecule_chembl_id>  (340) 
CHEMBL251430

>  <assay_type>  (340) 
B

>  <src_id>  (340) 
1

>  <ligand_efficiency>  (340) 
{u'le': u'0.21', u'bei': u'10.7', u'sei': u'4.72', u'lle': u'0.38'}

>  <standard_flag>  (340) 
True

>  <molecule_chembl_id>  (340) 
CHEMBL251430

>  <target_organism>  (340) 
Homo sapiens

>  <standard_units>  (340) 
nM

>  <record_id>  (340) 
686498

>  <document_chembl_id>  (340) 
CHEMBL1140748

>  <bao_format>  (340) 
BAO_0000357

>  <data_validity_description>  (340) 
None

>  <activity_id>  (340) 
2069346

>  <standard_type>  (340) 
IC50

>  <target_chembl_id>  (340) 
CHEMBL202

>  <data_validity_comment>  (340) 
None

>  <published_value>  (340) 
55.2

>  <document_year>  (340) 
2008

>  <target_pref_name>  (340) 
Dihydrofolate reductase

>  <assay_chembl_id>  (340) 
CHEMBL944098

>  <standard_relation>  (340) 
=

>  <assay_description>  (340) 
Inhibition of human recombinant DHFR

>  <published_relation>  (340) 
=

>  <standard_value>  (340) 
55200

>  <qudt_units>  (340) 
http://www.openphacts.org/units/Nanomolar

>  <target_tax_id>  (340) 
9606

>  <bao_label>  (340) 
single protein format

>  <published_units>  (340) 
uM

>  <pchembl_value>  (340) 
4.26

>  <published_type>  (340) 
IC50

>  <activity_comment>  (340) 
None

$$$$

     RDKit          

 20 22  0  0  0  0  0  0  0  0999 V2000
    0.0000    0.0000    0.0000 C   0  0  0  0  0  0  0  0  0  0  0  0
    0.0000    0.0000    0.0000 C   0  0  0  0  0  0  0  0  0  0  0  0
    0.0000    0.0000    0.0000 S   0  0  0  0  0  0  0  0  0  0  0  0
    0.0000    0.0000    0.0000 C   0  0  0  0  0  0  0  0  0  0  0  0
    0.0000    0.0000    0.0000 N   0  0  0  0  0  0  0  0  0  0  0  0
    0.0000    0.0000    0.0000 C   0  0  0  0  0  0  0  0  0  0  0  0
    0.0000    0.0000    0.0000 N   0  0  0  0  0  0  0  0  0  0  0  0
    0.0000    0.0000    0.0000 N   0  0  0  0  0  0  0  0  0  0  0  0
    0.0000    0.0000    0.0000 C   0  0  0  0  0  0  0  0  0  0  0  0
    0.0000    0.0000    0.0000 O   0  0  0  0  0  0  0  0  0  0  0  0
    0.0000    0.0000    0.0000 C   0  0  0  0  0  0  0  0  0  0  0  0
    0.0000    0.0000    0.0000 C   0  0  0  0  0  0  0  0  0  0  0  0
    0.0000    0.0000    0.0000 S   0  0  0  0  0  0  0  0  0  0  0  0
    0.0000    0.0000    0.0000 C   0  0  0  0  0  0  0  0  0  0  0  0
    0.0000    0.0000    0.0000 C   0  0  0  0  0  0  0  0  0  0  0  0
    0.0000    0.0000    0.0000 C   0  0  0  0  0  0  0  0  0  0  0  0
    0.0000    0.0000    0.0000 C   0  0  0  0  0  0  0  0  0  0  0  0
    0.0000    0.0000    0.0000 F   0  0  0  0  0  0  0  0  0  0  0  0
    0.0000    0.0000    0.0000 C   0  0  0  0  0  0  0  0  0  0  0  0
    0.0000    0.0000    0.0000 C   0  0  0  0  0  0  0  0  0  0  0  0
  1  2  1  0
  2  3  1  0
  3  4  1  0
  4  5  1  0
  5  6  2  0
  6  7  1  0
  6  8  1  0
  8  9  1  0
  9 10  2  0
  9 11  1  0
 11 12  1  0
 12 13  1  0
 13 14  1  0
 14 15  2  0
 15 16  1  0
 16 17  2  0
 17 18  1  0
 17 19  1  0
 19 20  2  0
 12  2  2  0
 11  4  2  0
 20 14  1  0
M  END
>  <pIC50>  (341) 
5.59

>  <ChEMBL_ID>  (341) 
CHEMBL449543

>  <document_journal>  (341) 
J. Med. Chem.

>  <bao_endpoint>  (341) 
BAO_0000190

>  <potential_duplicate>  (341) 
False

>  <uo_units>  (341) 
UO_0000065

>  <canonical_smiles>  (341) 
Cc1sc2N=C(N)NC(=O)c2c1Sc3ccc(F)cc3

>  <parent_molecule_chembl_id>  (341) 
CHEMBL449543

>  <assay_type>  (341) 
B

>  <src_id>  (341) 
1

>  <ligand_efficiency>  (341) 
{u'le': u'0.38', u'bei': u'18.17', u'sei': u'4.62', u'lle': u'2.71'}

>  <standard_flag>  (341) 
True

>  <molecule_chembl_id>  (341) 
CHEMBL449543

>  <target_organism>  (341) 
Homo sapiens

>  <standard_units>  (341) 
nM

>  <record_id>  (341) 
746059

>  <document_chembl_id>  (341) 
CHEMBL1140135

>  <bao_format>  (341) 
BAO_0000357

>  <data_validity_description>  (341) 
None

>  <activity_id>  (341) 
2369170

>  <standard_type>  (341) 
IC50

>  <target_chembl_id>  (341) 
CHEMBL202

>  <data_validity_comment>  (341) 
None

>  <published_value>  (341) 
2.6

>  <document_year>  (341) 
2008

>  <target_pref_name>  (341) 
Dihydrofolate reductase

>  <assay_chembl_id>  (341) 
CHEMBL1034981

>  <standard_relation>  (341) 
=

>  <assay_description>  (341) 
Inhibition of human recombinant DHFR

>  <published_relation>  (341) 
=

>  <standard_value>  (341) 
2600

>  <qudt_units>  (341) 
http://www.openphacts.org/units/Nanomolar

>  <target_tax_id>  (341) 
9606

>  <bao_label>  (341) 
single protein format

>  <published_units>  (341) 
uM

>  <pchembl_value>  (341) 
5.59

>  <published_type>  (341) 
IC50

>  <activity_comment>  (341) 
None

$$$$

     RDKit          

 19 21  0  0  0  0  0  0  0  0999 V2000
    0.0000    0.0000    0.0000 C   0  0  0  0  0  0  0  0  0  0  0  0
    0.0000    0.0000    0.0000 C   0  0  0  0  0  0  0  0  0  0  0  0
    0.0000    0.0000    0.0000 S   0  0  0  0  0  0  0  0  0  0  0  0
    0.0000    0.0000    0.0000 C   0  0  0  0  0  0  0  0  0  0  0  0
    0.0000    0.0000    0.0000 N   0  0  0  0  0  0  0  0  0  0  0  0
    0.0000    0.0000    0.0000 C   0  0  0  0  0  0  0  0  0  0  0  0
    0.0000    0.0000    0.0000 N   0  0  0  0  0  0  0  0  0  0  0  0
    0.0000    0.0000    0.0000 N   0  0  0  0  0  0  0  0  0  0  0  0
    0.0000    0.0000    0.0000 C   0  0  0  0  0  0  0  0  0  0  0  0
    0.0000    0.0000    0.0000 O   0  0  0  0  0  0  0  0  0  0  0  0
    0.0000    0.0000    0.0000 C   0  0  0  0  0  0  0  0  0  0  0  0
    0.0000    0.0000    0.0000 C   0  0  0  0  0  0  0  0  0  0  0  0
    0.0000    0.0000    0.0000 S   0  0  0  0  0  0  0  0  0  0  0  0
    0.0000    0.0000    0.0000 C   0  0  0  0  0  0  0  0  0  0  0  0
    0.0000    0.0000    0.0000 C   0  0  0  0  0  0  0  0  0  0  0  0
    0.0000    0.0000    0.0000 C   0  0  0  0  0  0  0  0  0  0  0  0
    0.0000    0.0000    0.0000 N   0  0  0  0  0  0  0  0  0  0  0  0
    0.0000    0.0000    0.0000 C   0  0  0  0  0  0  0  0  0  0  0  0
    0.0000    0.0000    0.0000 C   0  0  0  0  0  0  0  0  0  0  0  0
  1  2  1  0
  2  3  1  0
  3  4  1  0
  4  5  1  0
  5  6  2  0
  6  7  1  0
  6  8  1  0
  8  9  1  0
  9 10  2  0
  9 11  1  0
 11 12  1  0
 12 13  1  0
 13 14  1  0
 14 15  2  0
 15 16  1  0
 16 17  2  0
 17 18  1  0
 18 19  2  0
 12  2  2  0
 11  4  2  0
 19 14  1  0
M  END
>  <pIC50>  (342) 
5.6

>  <ChEMBL_ID>  (342) 
CHEMBL495125

>  <document_journal>  (342) 
J. Med. Chem.

>  <bao_endpoint>  (342) 
BAO_0000190

>  <potential_duplicate>  (342) 
False

>  <uo_units>  (342) 
UO_0000065

>  <canonical_smiles>  (342) 
Cc1sc2N=C(N)NC(=O)c2c1Sc3ccncc3

>  <parent_molecule_chembl_id>  (342) 
CHEMBL495125

>  <assay_type>  (342) 
B

>  <src_id>  (342) 
1

>  <ligand_efficiency>  (342) 
{u'le': u'0.4', u'bei': u'19.29', u'sei': u'4.18', u'lle': u'4.08'}

>  <standard_flag>  (342) 
True

>  <molecule_chembl_id>  (342) 
CHEMBL495125

>  <target_organism>  (342) 
Homo sapiens

>  <standard_units>  (342) 
nM

>  <record_id>  (342) 
746058

>  <document_chembl_id>  (342) 
CHEMBL1140135

>  <bao_format>  (342) 
BAO_0000357

>  <data_validity_description>  (342) 
None

>  <activity_id>  (342) 
2369171

>  <standard_type>  (342) 
IC50

>  <target_chembl_id>  (342) 
CHEMBL202

>  <data_validity_comment>  (342) 
None

>  <published_value>  (342) 
2.5

>  <document_year>  (342) 
2008

>  <target_pref_name>  (342) 
Dihydrofolate reductase

>  <assay_chembl_id>  (342) 
CHEMBL1034981

>  <standard_relation>  (342) 
=

>  <assay_description>  (342) 
Inhibition of human recombinant DHFR

>  <published_relation>  (342) 
=

>  <standard_value>  (342) 
2500

>  <qudt_units>  (342) 
http://www.openphacts.org/units/Nanomolar

>  <target_tax_id>  (342) 
9606

>  <bao_label>  (342) 
single protein format

>  <published_units>  (342) 
uM

>  <pchembl_value>  (342) 
5.6

>  <published_type>  (342) 
IC50

>  <activity_comment>  (342) 
None

$$$$

     RDKit          

 23 26  0  0  0  0  0  0  0  0999 V2000
    0.0000    0.0000    0.0000 C   0  0  0  0  0  0  0  0  0  0  0  0
    0.0000    0.0000    0.0000 C   0  0  0  0  0  0  0  0  0  0  0  0
    0.0000    0.0000    0.0000 S   0  0  0  0  0  0  0  0  0  0  0  0
    0.0000    0.0000    0.0000 C   0  0  0  0  0  0  0  0  0  0  0  0
    0.0000    0.0000    0.0000 N   0  0  0  0  0  0  0  0  0  0  0  0
    0.0000    0.0000    0.0000 C   0  0  0  0  0  0  0  0  0  0  0  0
    0.0000    0.0000    0.0000 N   0  0  0  0  0  0  0  0  0  0  0  0
    0.0000    0.0000    0.0000 N   0  0  0  0  0  0  0  0  0  0  0  0
    0.0000    0.0000    0.0000 C   0  0  0  0  0  0  0  0  0  0  0  0
    0.0000    0.0000    0.0000 O   0  0  0  0  0  0  0  0  0  0  0  0
    0.0000    0.0000    0.0000 C   0  0  0  0  0  0  0  0  0  0  0  0
    0.0000    0.0000    0.0000 C   0  0  0  0  0  0  0  0  0  0  0  0
    0.0000    0.0000    0.0000 S   0  0  0  0  0  0  0  0  0  0  0  0
    0.0000    0.0000    0.0000 C   0  0  0  0  0  0  0  0  0  0  0  0
    0.0000    0.0000    0.0000 C   0  0  0  0  0  0  0  0  0  0  0  0
    0.0000    0.0000    0.0000 C   0  0  0  0  0  0  0  0  0  0  0  0
    0.0000    0.0000    0.0000 C   0  0  0  0  0  0  0  0  0  0  0  0
    0.0000    0.0000    0.0000 C   0  0  0  0  0  0  0  0  0  0  0  0
    0.0000    0.0000    0.0000 C   0  0  0  0  0  0  0  0  0  0  0  0
    0.0000    0.0000    0.0000 C   0  0  0  0  0  0  0  0  0  0  0  0
    0.0000    0.0000    0.0000 C   0  0  0  0  0  0  0  0  0  0  0  0
    0.0000    0.0000    0.0000 C   0  0  0  0  0  0  0  0  0  0  0  0
    0.0000    0.0000    0.0000 C   0  0  0  0  0  0  0  0  0  0  0  0
  1  2  1  0
  2  3  1  0
  3  4  1  0
  4  5  1  0
  5  6  2  0
  6  7  1  0
  6  8  1  0
  8  9  1  0
  9 10  2  0
  9 11  1  0
 11 12  1  0
 12 13  1  0
 13 14  1  0
 14 15  2  0
 15 16  1  0
 16 17  2  0
 17 18  1  0
 18 19  2  0
 19 20  1  0
 20 21  2  0
 21 22  1  0
 22 23  2  0
 12  2  2  0
 11  4  2  0
 23 14  1  0
 22 17  1  0
M  END
>  <pIC50>  (343) 
5.54

>  <ChEMBL_ID>  (343) 
CHEMBL495124

>  <document_journal>  (343) 
J. Med. Chem.

>  <bao_endpoint>  (343) 
BAO_0000190

>  <potential_duplicate>  (343) 
False

>  <uo_units>  (343) 
UO_0000065

>  <canonical_smiles>  (343) 
Cc1sc2N=C(N)NC(=O)c2c1Sc3ccc4ccccc4c3

>  <parent_molecule_chembl_id>  (343) 
CHEMBL495124

>  <assay_type>  (343) 
B

>  <src_id>  (343) 
1

>  <ligand_efficiency>  (343) 
{u'le': u'0.33', u'bei': u'16.31', u'sei': u'4.58', u'lle': u'1.96'}

>  <standard_flag>  (343) 
True

>  <molecule_chembl_id>  (343) 
CHEMBL495124

>  <target_organism>  (343) 
Homo sapiens

>  <standard_units>  (343) 
nM

>  <record_id>  (343) 
746057

>  <document_chembl_id>  (343) 
CHEMBL1140135

>  <bao_format>  (343) 
BAO_0000357

>  <data_validity_description>  (343) 
None

>  <activity_id>  (343) 
2369172

>  <standard_type>  (343) 
IC50

>  <target_chembl_id>  (343) 
CHEMBL202

>  <data_validity_comment>  (343) 
None

>  <published_value>  (343) 
2.9

>  <document_year>  (343) 
2008

>  <target_pref_name>  (343) 
Dihydrofolate reductase

>  <assay_chembl_id>  (343) 
CHEMBL1034981

>  <standard_relation>  (343) 
=

>  <assay_description>  (343) 
Inhibition of human recombinant DHFR

>  <published_relation>  (343) 
=

>  <standard_value>  (343) 
2900

>  <qudt_units>  (343) 
http://www.openphacts.org/units/Nanomolar

>  <target_tax_id>  (343) 
9606

>  <bao_label>  (343) 
single protein format

>  <published_units>  (343) 
uM

>  <pchembl_value>  (343) 
5.54

>  <published_type>  (343) 
IC50

>  <activity_comment>  (343) 
None

$$$$

     RDKit          

 21 23  0  0  0  0  0  0  0  0999 V2000
    0.0000    0.0000    0.0000 C   0  0  0  0  0  0  0  0  0  0  0  0
    0.0000    0.0000    0.0000 C   0  0  0  0  0  0  0  0  0  0  0  0
    0.0000    0.0000    0.0000 S   0  0  0  0  0  0  0  0  0  0  0  0
    0.0000    0.0000    0.0000 C   0  0  0  0  0  0  0  0  0  0  0  0
    0.0000    0.0000    0.0000 N   0  0  0  0  0  0  0  0  0  0  0  0
    0.0000    0.0000    0.0000 C   0  0  0  0  0  0  0  0  0  0  0  0
    0.0000    0.0000    0.0000 N   0  0  0  0  0  0  0  0  0  0  0  0
    0.0000    0.0000    0.0000 N   0  0  0  0  0  0  0  0  0  0  0  0
    0.0000    0.0000    0.0000 C   0  0  0  0  0  0  0  0  0  0  0  0
    0.0000    0.0000    0.0000 O   0  0  0  0  0  0  0  0  0  0  0  0
    0.0000    0.0000    0.0000 C   0  0  0  0  0  0  0  0  0  0  0  0
    0.0000    0.0000    0.0000 C   0  0  0  0  0  0  0  0  0  0  0  0
    0.0000    0.0000    0.0000 S   0  0  0  0  0  0  0  0  0  0  0  0
    0.0000    0.0000    0.0000 C   0  0  0  0  0  0  0  0  0  0  0  0
    0.0000    0.0000    0.0000 C   0  0  0  0  0  0  0  0  0  0  0  0
    0.0000    0.0000    0.0000 C   0  0  0  0  0  0  0  0  0  0  0  0
    0.0000    0.0000    0.0000 Cl  0  0  0  0  0  0  0  0  0  0  0  0
    0.0000    0.0000    0.0000 C   0  0  0  0  0  0  0  0  0  0  0  0
    0.0000    0.0000    0.0000 C   0  0  0  0  0  0  0  0  0  0  0  0
    0.0000    0.0000    0.0000 Cl  0  0  0  0  0  0  0  0  0  0  0  0
    0.0000    0.0000    0.0000 C   0  0  0  0  0  0  0  0  0  0  0  0
  1  2  1  0
  2  3  1  0
  3  4  1  0
  4  5  1  0
  5  6  2  0
  6  7  1  0
  6  8  1  0
  8  9  1  0
  9 10  2  0
  9 11  1  0
 11 12  1  0
 12 13  1  0
 13 14  1  0
 14 15  2  0
 15 16  1  0
 16 17  1  0
 16 18  2  0
 18 19  1  0
 19 20  1  0
 19 21  2  0
 12  2  2  0
 11  4  2  0
 21 14  1  0
M  END
>  <pIC50>  (344) 
5.25

>  <ChEMBL_ID>  (344) 
CHEMBL492839

>  <document_journal>  (344) 
J. Med. Chem.

>  <bao_endpoint>  (344) 
BAO_0000190

>  <potential_duplicate>  (344) 
False

>  <uo_units>  (344) 
UO_0000065

>  <canonical_smiles>  (344) 
Cc1sc2N=C(N)NC(=O)c2c1Sc3cc(Cl)cc(Cl)c3

>  <parent_molecule_chembl_id>  (344) 
CHEMBL492839

>  <assay_type>  (344) 
B

>  <src_id>  (344) 
1

>  <ligand_efficiency>  (344) 
{u'le': u'0.34', u'bei': u'14.66', u'sei': u'4.34', u'lle': u'1.25'}

>  <standard_flag>  (344) 
True

>  <molecule_chembl_id>  (344) 
CHEMBL492839

>  <target_organism>  (344) 
Homo sapiens

>  <standard_units>  (344) 
nM

>  <record_id>  (344) 
745962

>  <document_chembl_id>  (344) 
CHEMBL1140135

>  <bao_format>  (344) 
BAO_0000357

>  <data_validity_description>  (344) 
None

>  <activity_id>  (344) 
2369173

>  <standard_type>  (344) 
IC50

>  <target_chembl_id>  (344) 
CHEMBL202

>  <data_validity_comment>  (344) 
None

>  <published_value>  (344) 
5.6

>  <document_year>  (344) 
2008

>  <target_pref_name>  (344) 
Dihydrofolate reductase

>  <assay_chembl_id>  (344) 
CHEMBL1034981

>  <standard_relation>  (344) 
=

>  <assay_description>  (344) 
Inhibition of human recombinant DHFR

>  <published_relation>  (344) 
=

>  <standard_value>  (344) 
5600

>  <qudt_units>  (344) 
http://www.openphacts.org/units/Nanomolar

>  <target_tax_id>  (344) 
9606

>  <bao_label>  (344) 
single protein format

>  <published_units>  (344) 
uM

>  <pchembl_value>  (344) 
5.25

>  <published_type>  (344) 
IC50

>  <activity_comment>  (344) 
None

$$$$

     RDKit          

 21 23  0  0  0  0  0  0  0  0999 V2000
    0.0000    0.0000    0.0000 C   0  0  0  0  0  0  0  0  0  0  0  0
    0.0000    0.0000    0.0000 C   0  0  0  0  0  0  0  0  0  0  0  0
    0.0000    0.0000    0.0000 S   0  0  0  0  0  0  0  0  0  0  0  0
    0.0000    0.0000    0.0000 C   0  0  0  0  0  0  0  0  0  0  0  0
    0.0000    0.0000    0.0000 N   0  0  0  0  0  0  0  0  0  0  0  0
    0.0000    0.0000    0.0000 C   0  0  0  0  0  0  0  0  0  0  0  0
    0.0000    0.0000    0.0000 N   0  0  0  0  0  0  0  0  0  0  0  0
    0.0000    0.0000    0.0000 N   0  0  0  0  0  0  0  0  0  0  0  0
    0.0000    0.0000    0.0000 C   0  0  0  0  0  0  0  0  0  0  0  0
    0.0000    0.0000    0.0000 O   0  0  0  0  0  0  0  0  0  0  0  0
    0.0000    0.0000    0.0000 C   0  0  0  0  0  0  0  0  0  0  0  0
    0.0000    0.0000    0.0000 C   0  0  0  0  0  0  0  0  0  0  0  0
    0.0000    0.0000    0.0000 S   0  0  0  0  0  0  0  0  0  0  0  0
    0.0000    0.0000    0.0000 C   0  0  0  0  0  0  0  0  0  0  0  0
    0.0000    0.0000    0.0000 C   0  0  0  0  0  0  0  0  0  0  0  0
    0.0000    0.0000    0.0000 C   0  0  0  0  0  0  0  0  0  0  0  0
    0.0000    0.0000    0.0000 C   0  0  0  0  0  0  0  0  0  0  0  0
    0.0000    0.0000    0.0000 Cl  0  0  0  0  0  0  0  0  0  0  0  0
    0.0000    0.0000    0.0000 C   0  0  0  0  0  0  0  0  0  0  0  0
    0.0000    0.0000    0.0000 Cl  0  0  0  0  0  0  0  0  0  0  0  0
    0.0000    0.0000    0.0000 C   0  0  0  0  0  0  0  0  0  0  0  0
  1  2  1  0
  2  3  1  0
  3  4  1  0
  4  5  1  0
  5  6  2  0
  6  7  1  0
  6  8  1  0
  8  9  1  0
  9 10  2  0
  9 11  1  0
 11 12  1  0
 12 13  1  0
 13 14  1  0
 14 15  2  0
 15 16  1  0
 16 17  2  0
 17 18  1  0
 17 19  1  0
 19 20  1  0
 19 21  2  0
 12  2  2  0
 11  4  2  0
 21 14  1  0
M  END
>  <pIC50>  (345) 
5.55

>  <ChEMBL_ID>  (345) 
CHEMBL492838

>  <document_journal>  (345) 
J. Med. Chem.

>  <bao_endpoint>  (345) 
BAO_0000190

>  <potential_duplicate>  (345) 
False

>  <uo_units>  (345) 
UO_0000065

>  <canonical_smiles>  (345) 
Cc1sc2N=C(N)NC(=O)c2c1Sc3ccc(Cl)c(Cl)c3

>  <parent_molecule_chembl_id>  (345) 
CHEMBL492838

>  <assay_type>  (345) 
B

>  <src_id>  (345) 
1

>  <ligand_efficiency>  (345) 
{u'le': u'0.36', u'bei': u'15.5', u'sei': u'4.59', u'lle': u'1.55'}

>  <standard_flag>  (345) 
True

>  <molecule_chembl_id>  (345) 
CHEMBL492838

>  <target_organism>  (345) 
Homo sapiens

>  <standard_units>  (345) 
nM

>  <record_id>  (345) 
745961

>  <document_chembl_id>  (345) 
CHEMBL1140135

>  <bao_format>  (345) 
BAO_0000357

>  <data_validity_description>  (345) 
None

>  <activity_id>  (345) 
2369174

>  <standard_type>  (345) 
IC50

>  <target_chembl_id>  (345) 
CHEMBL202

>  <data_validity_comment>  (345) 
None

>  <published_value>  (345) 
2.8

>  <document_year>  (345) 
2008

>  <target_pref_name>  (345) 
Dihydrofolate reductase

>  <assay_chembl_id>  (345) 
CHEMBL1034981

>  <standard_relation>  (345) 
=

>  <assay_description>  (345) 
Inhibition of human recombinant DHFR

>  <published_relation>  (345) 
=

>  <standard_value>  (345) 
2800

>  <qudt_units>  (345) 
http://www.openphacts.org/units/Nanomolar

>  <target_tax_id>  (345) 
9606

>  <bao_label>  (345) 
single protein format

>  <published_units>  (345) 
uM

>  <pchembl_value>  (345) 
5.55

>  <published_type>  (345) 
IC50

>  <activity_comment>  (345) 
None

$$$$

     RDKit          

 23 25  0  0  0  0  0  0  0  0999 V2000
    0.0000    0.0000    0.0000 C   0  0  0  0  0  0  0  0  0  0  0  0
    0.0000    0.0000    0.0000 O   0  0  0  0  0  0  0  0  0  0  0  0
    0.0000    0.0000    0.0000 C   0  0  0  0  0  0  0  0  0  0  0  0
    0.0000    0.0000    0.0000 C   0  0  0  0  0  0  0  0  0  0  0  0
    0.0000    0.0000    0.0000 C   0  0  0  0  0  0  0  0  0  0  0  0
    0.0000    0.0000    0.0000 C   0  0  0  0  0  0  0  0  0  0  0  0
    0.0000    0.0000    0.0000 O   0  0  0  0  0  0  0  0  0  0  0  0
    0.0000    0.0000    0.0000 C   0  0  0  0  0  0  0  0  0  0  0  0
    0.0000    0.0000    0.0000 C   0  0  0  0  0  0  0  0  0  0  0  0
    0.0000    0.0000    0.0000 S   0  0  0  0  0  0  0  0  0  0  0  0
    0.0000    0.0000    0.0000 C   0  0  0  0  0  0  0  0  0  0  0  0
    0.0000    0.0000    0.0000 C   0  0  0  0  0  0  0  0  0  0  0  0
    0.0000    0.0000    0.0000 C   0  0  0  0  0  0  0  0  0  0  0  0
    0.0000    0.0000    0.0000 N   0  0  0  0  0  0  0  0  0  0  0  0
    0.0000    0.0000    0.0000 C   0  0  0  0  0  0  0  0  0  0  0  0
    0.0000    0.0000    0.0000 N   0  0  0  0  0  0  0  0  0  0  0  0
    0.0000    0.0000    0.0000 C   0  0  0  0  0  0  0  0  0  0  0  0
    0.0000    0.0000    0.0000 N   0  0  0  0  0  0  0  0  0  0  0  0
    0.0000    0.0000    0.0000 N   0  0  0  0  0  0  0  0  0  0  0  0
    0.0000    0.0000    0.0000 C   0  0  0  0  0  0  0  0  0  0  0  0
    0.0000    0.0000    0.0000 O   0  0  0  0  0  0  0  0  0  0  0  0
    0.0000    0.0000    0.0000 C   0  0  0  0  0  0  0  0  0  0  0  0
    0.0000    0.0000    0.0000 C   0  0  0  0  0  0  0  0  0  0  0  0
  1  2  1  0
  2  3  1  0
  3  4  2  0
  4  5  1  0
  5  6  2  0
  6  7  1  0
  7  8  1  0
  6  9  1  0
  9 10  1  0
 10 11  1  0
 11 12  2  0
 12 13  1  0
 12 14  1  0
 14 15  1  0
 15 16  1  0
 16 17  2  0
 17 18  1  0
 17 19  1  0
 19 20  1  0
 20 21  2  0
 20 22  1  0
  9 23  2  0
 23  3  1  0
 22 11  1  0
 22 15  2  0
M  END
>  <pIC50>  (346) 
4.66

>  <ChEMBL_ID>  (346) 
CHEMBL492837

>  <document_journal>  (346) 
J. Med. Chem.

>  <bao_endpoint>  (346) 
BAO_0000190

>  <potential_duplicate>  (346) 
False

>  <uo_units>  (346) 
UO_0000065

>  <canonical_smiles>  (346) 
COc1ccc(OC)c(Sc2c(C)[nH]c3N=C(N)NC(=O)c23)c1

>  <parent_molecule_chembl_id>  (346) 
CHEMBL492837

>  <assay_type>  (346) 
B

>  <src_id>  (346) 
1

>  <ligand_efficiency>  (346) 
{u'le': u'0.28', u'bei': u'14.01', u'sei': u'3.67', u'lle': u'2.59'}

>  <standard_flag>  (346) 
True

>  <molecule_chembl_id>  (346) 
CHEMBL492837

>  <target_organism>  (346) 
Homo sapiens

>  <standard_units>  (346) 
nM

>  <record_id>  (346) 
745960

>  <document_chembl_id>  (346) 
CHEMBL1140135

>  <bao_format>  (346) 
BAO_0000357

>  <data_validity_description>  (346) 
None

>  <activity_id>  (346) 
2369175

>  <standard_type>  (346) 
IC50

>  <target_chembl_id>  (346) 
CHEMBL202

>  <data_validity_comment>  (346) 
None

>  <published_value>  (346) 
22

>  <document_year>  (346) 
2008

>  <target_pref_name>  (346) 
Dihydrofolate reductase

>  <assay_chembl_id>  (346) 
CHEMBL1034981

>  <standard_relation>  (346) 
=

>  <assay_description>  (346) 
Inhibition of human recombinant DHFR

>  <published_relation>  (346) 
=

>  <standard_value>  (346) 
22000

>  <qudt_units>  (346) 
http://www.openphacts.org/units/Nanomolar

>  <target_tax_id>  (346) 
9606

>  <bao_label>  (346) 
single protein format

>  <published_units>  (346) 
uM

>  <pchembl_value>  (346) 
4.66

>  <published_type>  (346) 
IC50

>  <activity_comment>  (346) 
None

$$$$

     RDKit          

 22 24  0  0  0  0  0  0  0  0999 V2000
    0.0000    0.0000    0.0000 C   0  0  0  0  0  0  0  0  0  0  0  0
    0.0000    0.0000    0.0000 C   0  0  0  0  0  0  0  0  0  0  0  0
    0.0000    0.0000    0.0000 S   0  0  0  0  0  0  0  0  0  0  0  0
    0.0000    0.0000    0.0000 C   0  0  0  0  0  0  0  0  0  0  0  0
    0.0000    0.0000    0.0000 N   0  0  0  0  0  0  0  0  0  0  0  0
    0.0000    0.0000    0.0000 C   0  0  0  0  0  0  0  0  0  0  0  0
    0.0000    0.0000    0.0000 N   0  0  0  0  0  0  0  0  0  0  0  0
    0.0000    0.0000    0.0000 N   0  0  0  0  0  0  0  0  0  0  0  0
    0.0000    0.0000    0.0000 C   0  0  0  0  0  0  0  0  0  0  0  0
    0.0000    0.0000    0.0000 O   0  0  0  0  0  0  0  0  0  0  0  0
    0.0000    0.0000    0.0000 C   0  0  0  0  0  0  0  0  0  0  0  0
    0.0000    0.0000    0.0000 C   0  0  0  0  0  0  0  0  0  0  0  0
    0.0000    0.0000    0.0000 S   0  0  0  0  0  0  0  0  0  0  0  0
    0.0000    0.0000    0.0000 C   0  0  0  0  0  0  0  0  0  0  0  0
    0.0000    0.0000    0.0000 C   0  0  0  0  0  0  0  0  0  0  0  0
    0.0000    0.0000    0.0000 C   0  0  0  0  0  0  0  0  0  0  0  0
    0.0000    0.0000    0.0000 C   0  0  0  0  0  0  0  0  0  0  0  0
    0.0000    0.0000    0.0000 C   0  0  0  0  0  0  0  0  0  0  0  0
    0.0000    0.0000    0.0000 C   0  0  0  0  0  0  0  0  0  0  0  0
    0.0000    0.0000    0.0000 N   0  0  0  0  0  0  0  0  0  0  0  0
    0.0000    0.0000    0.0000 O   0  0  0  0  0  0  0  0  0  0  0  0
    0.0000    0.0000    0.0000 O   0  0  0  0  0  0  0  0  0  0  0  0
  1  2  1  0
  2  3  1  0
  3  4  1  0
  4  5  1  0
  5  6  2  0
  6  7  1  0
  6  8  1  0
  8  9  1  0
  9 10  2  0
  9 11  1  0
 11 12  1  0
 12 13  1  0
 13 14  1  0
 14 15  2  0
 15 16  1  0
 16 17  2  0
 17 18  1  0
 18 19  2  0
 17 20  1  0
 20 21  2  0
 20 22  1  0
 12  2  2  0
 11  4  2  0
 19 14  1  0
M  CHG  2  20   1  22  -1
M  END
>  <pIC50>  (347) 
6.25

>  <ChEMBL_ID>  (347) 
CHEMBL492836

>  <document_journal>  (347) 
J. Med. Chem.

>  <bao_endpoint>  (347) 
BAO_0000190

>  <potential_duplicate>  (347) 
False

>  <uo_units>  (347) 
UO_0000065

>  <canonical_smiles>  (347) 
Cc1sc2N=C(N)NC(=O)c2c1Sc3ccc(cc3)[N+](=O)[O-]

>  <parent_molecule_chembl_id>  (347) 
CHEMBL492836

>  <assay_type>  (347) 
B

>  <src_id>  (347) 
1

>  <ligand_efficiency>  (347) 
{u'le': u'0.39', u'bei': u'18.7', u'sei': u'3.75', u'lle': u'3.69'}

>  <standard_flag>  (347) 
True

>  <molecule_chembl_id>  (347) 
CHEMBL492836

>  <target_organism>  (347) 
Homo sapiens

>  <standard_units>  (347) 
nM

>  <record_id>  (347) 
745959

>  <document_chembl_id>  (347) 
CHEMBL1140135

>  <bao_format>  (347) 
BAO_0000357

>  <data_validity_description>  (347) 
None

>  <activity_id>  (347) 
2369176

>  <standard_type>  (347) 
IC50

>  <target_chembl_id>  (347) 
CHEMBL202

>  <data_validity_comment>  (347) 
None

>  <published_value>  (347) 
0.56

>  <document_year>  (347) 
2008

>  <target_pref_name>  (347) 
Dihydrofolate reductase

>  <assay_chembl_id>  (347) 
CHEMBL1034981

>  <standard_relation>  (347) 
=

>  <assay_description>  (347) 
Inhibition of human recombinant DHFR

>  <published_relation>  (347) 
=

>  <standard_value>  (347) 
560

>  <qudt_units>  (347) 
http://www.openphacts.org/units/Nanomolar

>  <target_tax_id>  (347) 
9606

>  <bao_label>  (347) 
single protein format

>  <published_units>  (347) 
uM

>  <pchembl_value>  (347) 
6.25

>  <published_type>  (347) 
IC50

>  <activity_comment>  (347) 
None

$$$$

     RDKit          

 20 22  0  0  0  0  0  0  0  0999 V2000
    0.0000    0.0000    0.0000 C   0  0  0  0  0  0  0  0  0  0  0  0
    0.0000    0.0000    0.0000 C   0  0  0  0  0  0  0  0  0  0  0  0
    0.0000    0.0000    0.0000 S   0  0  0  0  0  0  0  0  0  0  0  0
    0.0000    0.0000    0.0000 C   0  0  0  0  0  0  0  0  0  0  0  0
    0.0000    0.0000    0.0000 N   0  0  0  0  0  0  0  0  0  0  0  0
    0.0000    0.0000    0.0000 C   0  0  0  0  0  0  0  0  0  0  0  0
    0.0000    0.0000    0.0000 N   0  0  0  0  0  0  0  0  0  0  0  0
    0.0000    0.0000    0.0000 N   0  0  0  0  0  0  0  0  0  0  0  0
    0.0000    0.0000    0.0000 C   0  0  0  0  0  0  0  0  0  0  0  0
    0.0000    0.0000    0.0000 O   0  0  0  0  0  0  0  0  0  0  0  0
    0.0000    0.0000    0.0000 C   0  0  0  0  0  0  0  0  0  0  0  0
    0.0000    0.0000    0.0000 C   0  0  0  0  0  0  0  0  0  0  0  0
    0.0000    0.0000    0.0000 S   0  0  0  0  0  0  0  0  0  0  0  0
    0.0000    0.0000    0.0000 C   0  0  0  0  0  0  0  0  0  0  0  0
    0.0000    0.0000    0.0000 C   0  0  0  0  0  0  0  0  0  0  0  0
    0.0000    0.0000    0.0000 C   0  0  0  0  0  0  0  0  0  0  0  0
    0.0000    0.0000    0.0000 C   0  0  0  0  0  0  0  0  0  0  0  0
    0.0000    0.0000    0.0000 Cl  0  0  0  0  0  0  0  0  0  0  0  0
    0.0000    0.0000    0.0000 C   0  0  0  0  0  0  0  0  0  0  0  0
    0.0000    0.0000    0.0000 C   0  0  0  0  0  0  0  0  0  0  0  0
  1  2  1  0
  2  3  1  0
  3  4  1  0
  4  5  1  0
  5  6  2  0
  6  7  1  0
  6  8  1  0
  8  9  1  0
  9 10  2  0
  9 11  1  0
 11 12  1  0
 12 13  1  0
 13 14  1  0
 14 15  2  0
 15 16  1  0
 16 17  2  0
 17 18  1  0
 17 19  1  0
 19 20  2  0
 12  2  2  0
 11  4  2  0
 20 14  1  0
M  END
>  <pIC50>  (348) 
5.82

>  <ChEMBL_ID>  (348) 
CHEMBL522517

>  <document_journal>  (348) 
J. Med. Chem.

>  <bao_endpoint>  (348) 
BAO_0000190

>  <potential_duplicate>  (348) 
False

>  <uo_units>  (348) 
UO_0000065

>  <canonical_smiles>  (348) 
Cc1sc2N=C(N)NC(=O)c2c1Sc3ccc(Cl)cc3

>  <parent_molecule_chembl_id>  (348) 
CHEMBL522517

>  <assay_type>  (348) 
B

>  <src_id>  (348) 
1

>  <ligand_efficiency>  (348) 
{u'le': u'0.4', u'bei': u'17.99', u'sei': u'4.81', u'lle': u'2.49'}

>  <standard_flag>  (348) 
True

>  <molecule_chembl_id>  (348) 
CHEMBL522517

>  <target_organism>  (348) 
Homo sapiens

>  <standard_units>  (348) 
nM

>  <record_id>  (348) 
745958

>  <document_chembl_id>  (348) 
CHEMBL1140135

>  <bao_format>  (348) 
BAO_0000357

>  <data_validity_description>  (348) 
None

>  <activity_id>  (348) 
2369177

>  <standard_type>  (348) 
IC50

>  <target_chembl_id>  (348) 
CHEMBL202

>  <data_validity_comment>  (348) 
None

>  <published_value>  (348) 
1.5

>  <document_year>  (348) 
2008

>  <target_pref_name>  (348) 
Dihydrofolate reductase

>  <assay_chembl_id>  (348) 
CHEMBL1034981

>  <standard_relation>  (348) 
=

>  <assay_description>  (348) 
Inhibition of human recombinant DHFR

>  <published_relation>  (348) 
=

>  <standard_value>  (348) 
1500

>  <qudt_units>  (348) 
http://www.openphacts.org/units/Nanomolar

>  <target_tax_id>  (348) 
9606

>  <bao_label>  (348) 
single protein format

>  <published_units>  (348) 
uM

>  <pchembl_value>  (348) 
5.82

>  <published_type>  (348) 
IC50

>  <activity_comment>  (348) 
None

$$$$

     RDKit          

 19 21  0  0  0  0  0  0  0  0999 V2000
    0.0000    0.0000    0.0000 C   0  0  0  0  0  0  0  0  0  0  0  0
    0.0000    0.0000    0.0000 C   0  0  0  0  0  0  0  0  0  0  0  0
    0.0000    0.0000    0.0000 S   0  0  0  0  0  0  0  0  0  0  0  0
    0.0000    0.0000    0.0000 C   0  0  0  0  0  0  0  0  0  0  0  0
    0.0000    0.0000    0.0000 N   0  0  0  0  0  0  0  0  0  0  0  0
    0.0000    0.0000    0.0000 C   0  0  0  0  0  0  0  0  0  0  0  0
    0.0000    0.0000    0.0000 N   0  0  0  0  0  0  0  0  0  0  0  0
    0.0000    0.0000    0.0000 N   0  0  0  0  0  0  0  0  0  0  0  0
    0.0000    0.0000    0.0000 C   0  0  0  0  0  0  0  0  0  0  0  0
    0.0000    0.0000    0.0000 O   0  0  0  0  0  0  0  0  0  0  0  0
    0.0000    0.0000    0.0000 C   0  0  0  0  0  0  0  0  0  0  0  0
    0.0000    0.0000    0.0000 C   0  0  0  0  0  0  0  0  0  0  0  0
    0.0000    0.0000    0.0000 S   0  0  0  0  0  0  0  0  0  0  0  0
    0.0000    0.0000    0.0000 C   0  0  0  0  0  0  0  0  0  0  0  0
    0.0000    0.0000    0.0000 C   0  0  0  0  0  0  0  0  0  0  0  0
    0.0000    0.0000    0.0000 C   0  0  0  0  0  0  0  0  0  0  0  0
    0.0000    0.0000    0.0000 C   0  0  0  0  0  0  0  0  0  0  0  0
    0.0000    0.0000    0.0000 C   0  0  0  0  0  0  0  0  0  0  0  0
    0.0000    0.0000    0.0000 C   0  0  0  0  0  0  0  0  0  0  0  0
  1  2  1  0
  2  3  1  0
  3  4  1  0
  4  5  1  0
  5  6  2  0
  6  7  1  0
  6  8  1  0
  8  9  1  0
  9 10  2  0
  9 11  1  0
 11 12  1  0
 12 13  1  0
 13 14  1  0
 14 15  2  0
 15 16  1  0
 16 17  2  0
 17 18  1  0
 18 19  2  0
 12  2  2  0
 11  4  2  0
 19 14  1  0
M  END
>  <pIC50>  (349) 
5.46

>  <ChEMBL_ID>  (349) 
CHEMBL494067

>  <document_journal>  (349) 
J. Med. Chem.

>  <bao_endpoint>  (349) 
BAO_0000190

>  <potential_duplicate>  (349) 
False

>  <uo_units>  (349) 
UO_0000065

>  <canonical_smiles>  (349) 
Cc1sc2N=C(N)NC(=O)c2c1Sc3ccccc3

>  <parent_molecule_chembl_id>  (349) 
CHEMBL494067

>  <assay_type>  (349) 
B

>  <src_id>  (349) 
1

>  <ligand_efficiency>  (349) 
{u'le': u'0.39', u'bei': u'18.85', u'sei': u'4.51', u'lle': u'2.79'}

>  <standard_flag>  (349) 
True

>  <molecule_chembl_id>  (349) 
CHEMBL494067

>  <target_organism>  (349) 
Homo sapiens

>  <standard_units>  (349) 
nM

>  <record_id>  (349) 
745957

>  <document_chembl_id>  (349) 
CHEMBL1140135

>  <bao_format>  (349) 
BAO_0000357

>  <data_validity_description>  (349) 
None

>  <activity_id>  (349) 
2369178

>  <standard_type>  (349) 
IC50

>  <target_chembl_id>  (349) 
CHEMBL202

>  <data_validity_comment>  (349) 
None

>  <published_value>  (349) 
3.5

>  <document_year>  (349) 
2008

>  <target_pref_name>  (349) 
Dihydrofolate reductase

>  <assay_chembl_id>  (349) 
CHEMBL1034981

>  <standard_relation>  (349) 
=

>  <assay_description>  (349) 
Inhibition of human recombinant DHFR

>  <published_relation>  (349) 
=

>  <standard_value>  (349) 
3500

>  <qudt_units>  (349) 
http://www.openphacts.org/units/Nanomolar

>  <target_tax_id>  (349) 
9606

>  <bao_label>  (349) 
single protein format

>  <published_units>  (349) 
uM

>  <pchembl_value>  (349) 
5.46

>  <published_type>  (349) 
IC50

>  <activity_comment>  (349) 
None

$$$$

     RDKit          

 30 32  0  0  0  0  0  0  0  0999 V2000
    0.0000    0.0000    0.0000 C   0  0  0  0  0  0  0  0  0  0  0  0
    0.0000    0.0000    0.0000 C   0  0  0  0  0  0  0  0  0  0  0  0
    0.0000    0.0000    0.0000 S   0  0  0  0  0  0  0  0  0  0  0  0
    0.0000    0.0000    0.0000 C   0  0  0  0  0  0  0  0  0  0  0  0
    0.0000    0.0000    0.0000 N   0  0  0  0  0  0  0  0  0  0  0  0
    0.0000    0.0000    0.0000 C   0  0  0  0  0  0  0  0  0  0  0  0
    0.0000    0.0000    0.0000 N   0  0  0  0  0  0  0  0  0  0  0  0
    0.0000    0.0000    0.0000 N   0  0  0  0  0  0  0  0  0  0  0  0
    0.0000    0.0000    0.0000 C   0  0  0  0  0  0  0  0  0  0  0  0
    0.0000    0.0000    0.0000 O   0  0  0  0  0  0  0  0  0  0  0  0
    0.0000    0.0000    0.0000 C   0  0  0  0  0  0  0  0  0  0  0  0
    0.0000    0.0000    0.0000 C   0  0  0  0  0  0  0  0  0  0  0  0
    0.0000    0.0000    0.0000 S   0  0  0  0  0  0  0  0  0  0  0  0
    0.0000    0.0000    0.0000 C   0  0  0  0  0  0  0  0  0  0  0  0
    0.0000    0.0000    0.0000 C   0  0  0  0  0  0  0  0  0  0  0  0
    0.0000    0.0000    0.0000 C   0  0  0  0  0  0  0  0  0  0  0  0
    0.0000    0.0000    0.0000 C   0  0  0  0  0  0  0  0  0  0  0  0
    0.0000    0.0000    0.0000 C   0  0  0  0  0  0  0  0  0  0  0  0
    0.0000    0.0000    0.0000 C   0  0  0  0  0  0  0  0  0  0  0  0
    0.0000    0.0000    0.0000 C   0  0  0  0  0  0  0  0  0  0  0  0
    0.0000    0.0000    0.0000 O   0  0  0  0  0  0  0  0  0  0  0  0
    0.0000    0.0000    0.0000 N   0  0  0  0  0  0  0  0  0  0  0  0
    0.0000    0.0000    0.0000 C   0  0  0  0  0  0  0  0  0  0  0  0
    0.0000    0.0000    0.0000 C   0  0  0  0  0  0  0  0  0  0  0  0
    0.0000    0.0000    0.0000 C   0  0  0  0  0  0  0  0  0  0  0  0
    0.0000    0.0000    0.0000 O   0  0  0  0  0  0  0  0  0  0  0  0
    0.0000    0.0000    0.0000 O   0  0  0  0  0  0  0  0  0  0  0  0
    0.0000    0.0000    0.0000 C   0  0  0  0  0  0  0  0  0  0  0  0
    0.0000    0.0000    0.0000 O   0  0  0  0  0  0  0  0  0  0  0  0
    0.0000    0.0000    0.0000 O   0  0  0  0  0  0  0  0  0  0  0  0
  1  2  1  0
  2  3  1  0
  3  4  1  0
  4  5  1  0
  5  6  2  0
  6  7  1  0
  6  8  1  0
  8  9  1  0
  9 10  2  0
  9 11  1  0
 11 12  1  0
 12 13  1  0
 13 14  1  0
 14 15  2  0
 15 16  1  0
 16 17  2  0
 17 18  1  0
 18 19  2  0
 17 20  1  0
 20 21  2  0
 20 22  1  0
 22 23  1  0
 23 24  1  0
 24 25  1  0
 25 26  2  0
 25 27  1  0
 22 28  1  0
 28 29  2  0
 28 30  1  0
 12  2  2  0
 11  4  2  0
 19 14  1  0
M  END
>  <pIC50>  (350) 
7.7

>  <ChEMBL_ID>  (350) 
CHEMBL522363

>  <document_journal>  (350) 
J. Med. Chem.

>  <bao_endpoint>  (350) 
BAO_0000190

>  <potential_duplicate>  (350) 
False

>  <uo_units>  (350) 
UO_0000065

>  <canonical_smiles>  (350) 
Cc1sc2N=C(N)NC(=O)c2c1Sc3ccc(cc3)C(=O)N(CCC(=O)O)C(=O)O

>  <parent_molecule_chembl_id>  (350) 
CHEMBL522363

>  <assay_type>  (350) 
B

>  <src_id>  (350) 
1

>  <ligand_efficiency>  (350) 
{u'le': u'0.35', u'bei': u'17.17', u'sei': u'3.57', u'lle': u'5.68'}

>  <standard_flag>  (350) 
True

>  <molecule_chembl_id>  (350) 
CHEMBL522363

>  <target_organism>  (350) 
Homo sapiens

>  <standard_units>  (350) 
nM

>  <record_id>  (350) 
745861

>  <document_chembl_id>  (350) 
CHEMBL1140135

>  <bao_format>  (350) 
BAO_0000357

>  <data_validity_description>  (350) 
None

>  <activity_id>  (350) 
2369179

>  <standard_type>  (350) 
IC50

>  <target_chembl_id>  (350) 
CHEMBL202

>  <data_validity_comment>  (350) 
None

>  <published_value>  (350) 
0.02

>  <document_year>  (350) 
2008

>  <target_pref_name>  (350) 
Dihydrofolate reductase

>  <assay_chembl_id>  (350) 
CHEMBL1034981

>  <standard_relation>  (350) 
=

>  <assay_description>  (350) 
Inhibition of human recombinant DHFR

>  <published_relation>  (350) 
=

>  <standard_value>  (350) 
20

>  <qudt_units>  (350) 
http://www.openphacts.org/units/Nanomolar

>  <target_tax_id>  (350) 
9606

>  <bao_label>  (350) 
single protein format

>  <published_units>  (350) 
uM

>  <pchembl_value>  (350) 
7.7

>  <published_type>  (350) 
IC50

>  <activity_comment>  (350) 
None

$$$$

     RDKit          

 23 24  0  0  0  0  0  0  0  0999 V2000
    0.0000    0.0000    0.0000 C   0  0  0  0  0  0  0  0  0  0  0  0
    0.0000    0.0000    0.0000 O   0  0  0  0  0  0  0  0  0  0  0  0
    0.0000    0.0000    0.0000 C   0  0  0  0  0  0  0  0  0  0  0  0
    0.0000    0.0000    0.0000 C   0  0  0  0  0  0  0  0  0  0  0  0
    0.0000    0.0000    0.0000 C   0  0  0  0  0  0  0  0  0  0  0  0
    0.0000    0.0000    0.0000 C   0  0  0  0  0  0  0  0  0  0  0  0
    0.0000    0.0000    0.0000 C   0  0  0  0  0  0  0  0  0  0  0  0
    0.0000    0.0000    0.0000 C   0  0  0  0  0  0  0  0  0  0  0  0
    0.0000    0.0000    0.0000 C   0  0  0  0  0  0  0  0  0  0  0  0
    0.0000    0.0000    0.0000 C   0  0  0  0  0  0  0  0  0  0  0  0
    0.0000    0.0000    0.0000 N   0  0  0  0  0  0  0  0  0  0  0  0
    0.0000    0.0000    0.0000 C   0  0  0  0  0  0  0  0  0  0  0  0
    0.0000    0.0000    0.0000 N   0  0  0  0  0  0  0  0  0  0  0  0
    0.0000    0.0000    0.0000 N   0  0  0  0  0  0  0  0  0  0  0  0
    0.0000    0.0000    0.0000 C   0  0  0  0  0  0  0  0  0  0  0  0
    0.0000    0.0000    0.0000 N   0  0  0  0  0  0  0  0  0  0  0  0
    0.0000    0.0000    0.0000 C   0  0  0  0  0  0  0  0  0  0  0  0
    0.0000    0.0000    0.0000 C   0  0  0  0  0  0  0  0  0  0  0  0
    0.0000    0.0000    0.0000 O   0  0  0  0  0  0  0  0  0  0  0  0
    0.0000    0.0000    0.0000 C   0  0  0  0  0  0  0  0  0  0  0  0
    0.0000    0.0000    0.0000 C   0  0  0  0  0  0  0  0  0  0  0  0
    0.0000    0.0000    0.0000 O   0  0  0  0  0  0  0  0  0  0  0  0
    0.0000    0.0000    0.0000 C   0  0  0  0  0  0  0  0  0  0  0  0
  1  2  1  0
  2  3  1  0
  3  4  2  0
  4  5  1  0
  5  6  1  0
  6  7  1  0
  7  8  3  0
  8  9  1  0
  9 10  2  0
 10 11  1  0
 11 12  2  0
 12 13  1  0
 12 14  1  0
 14 15  2  0
 15 16  1  0
  5 17  2  0
 17 18  1  0
 18 19  1  0
 19 20  1  0
 18 21  2  0
 21 22  1  0
 22 23  1  0
 21  3  1  0
 15  9  1  0
M  END
>  <pIC50>  (351) 
5.84

>  <ChEMBL_ID>  (351) 
CHEMBL219624

>  <document_journal>  (351) 
J. Med. Chem.

>  <bao_endpoint>  (351) 
BAO_0000190

>  <potential_duplicate>  (351) 
False

>  <uo_units>  (351) 
UO_0000065

>  <canonical_smiles>  (351) 
COc1cc(CC#Cc2cnc(N)nc2N)cc(OC)c1OC

>  <parent_molecule_chembl_id>  (351) 
CHEMBL219624

>  <assay_type>  (351) 
B

>  <src_id>  (351) 
1

>  <ligand_efficiency>  (351) 
{u'le': u'0.35', u'bei': u'18.56', u'sei': u'5.53', u'lle': u'3.71'}

>  <standard_flag>  (351) 
True

>  <molecule_chembl_id>  (351) 
CHEMBL219624

>  <target_organism>  (351) 
Homo sapiens

>  <standard_units>  (351) 
nM

>  <record_id>  (351) 
803131

>  <document_chembl_id>  (351) 
CHEMBL1140220

>  <bao_format>  (351) 
BAO_0000357

>  <data_validity_description>  (351) 
None

>  <activity_id>  (351) 
2383069

>  <standard_type>  (351) 
IC50

>  <target_chembl_id>  (351) 
CHEMBL202

>  <data_validity_comment>  (351) 
None

>  <published_value>  (351) 
1.46

>  <document_year>  (351) 
2008

>  <target_pref_name>  (351) 
Dihydrofolate reductase

>  <assay_chembl_id>  (351) 
CHEMBL999460

>  <standard_relation>  (351) 
=

>  <assay_description>  (351) 
Inhibition of human DHFR assessed as rate of enzyme-dependent NADPH oxidation

>  <published_relation>  (351) 
=

>  <standard_value>  (351) 
1460

>  <qudt_units>  (351) 
http://www.openphacts.org/units/Nanomolar

>  <target_tax_id>  (351) 
9606

>  <bao_label>  (351) 
single protein format

>  <published_units>  (351) 
uM

>  <pchembl_value>  (351) 
5.84

>  <published_type>  (351) 
IC50

>  <activity_comment>  (351) 
None

$$$$

     RDKit          

 24 25  0  0  0  0  0  0  0  0999 V2000
    0.0000    0.0000    0.0000 C   0  0  0  0  0  0  0  0  0  0  0  0
    0.0000    0.0000    0.0000 O   0  0  0  0  0  0  0  0  0  0  0  0
    0.0000    0.0000    0.0000 C   0  0  0  0  0  0  0  0  0  0  0  0
    0.0000    0.0000    0.0000 C   0  0  0  0  0  0  0  0  0  0  0  0
    0.0000    0.0000    0.0000 C   0  0  0  0  0  0  0  0  0  0  0  0
    0.0000    0.0000    0.0000 C   0  0  0  0  0  0  0  0  0  0  0  0
    0.0000    0.0000    0.0000 C   0  0  0  0  0  0  0  0  0  0  0  0
    0.0000    0.0000    0.0000 C   0  0  0  0  0  0  0  0  0  0  0  0
    0.0000    0.0000    0.0000 C   0  0  0  0  0  0  0  0  0  0  0  0
    0.0000    0.0000    0.0000 C   0  0  0  0  0  0  0  0  0  0  0  0
    0.0000    0.0000    0.0000 C   0  0  0  0  0  0  0  0  0  0  0  0
    0.0000    0.0000    0.0000 N   0  0  0  0  0  0  0  0  0  0  0  0
    0.0000    0.0000    0.0000 C   0  0  0  0  0  0  0  0  0  0  0  0
    0.0000    0.0000    0.0000 N   0  0  0  0  0  0  0  0  0  0  0  0
    0.0000    0.0000    0.0000 N   0  0  0  0  0  0  0  0  0  0  0  0
    0.0000    0.0000    0.0000 C   0  0  0  0  0  0  0  0  0  0  0  0
    0.0000    0.0000    0.0000 N   0  0  0  0  0  0  0  0  0  0  0  0
    0.0000    0.0000    0.0000 C   0  0  0  0  0  0  0  0  0  0  0  0
    0.0000    0.0000    0.0000 C   0  0  0  0  0  0  0  0  0  0  0  0
    0.0000    0.0000    0.0000 O   0  0  0  0  0  0  0  0  0  0  0  0
    0.0000    0.0000    0.0000 C   0  0  0  0  0  0  0  0  0  0  0  0
    0.0000    0.0000    0.0000 C   0  0  0  0  0  0  0  0  0  0  0  0
    0.0000    0.0000    0.0000 O   0  0  0  0  0  0  0  0  0  0  0  0
    0.0000    0.0000    0.0000 C   0  0  0  0  0  0  0  0  0  0  0  0
  1  2  1  0
  2  3  1  0
  3  4  2  0
  4  5  1  0
  5  6  1  0
  6  7  1  0
  7  8  3  0
  8  9  1  0
  9 10  2  0
 10 11  1  0
 10 12  1  0
 12 13  2  0
 13 14  1  0
 13 15  1  0
 15 16  2  0
 16 17  1  0
  5 18  2  0
 18 19  1  0
 19 20  1  0
 20 21  1  0
 19 22  2  0
 22 23  1  0
 23 24  1  0
 22  3  1  0
 16  9  1  0
M  END
>  <pIC50>  (352) 
6.4

>  <ChEMBL_ID>  (352) 
CHEMBL220159

>  <document_journal>  (352) 
J. Med. Chem.

>  <bao_endpoint>  (352) 
BAO_0000190

>  <potential_duplicate>  (352) 
False

>  <uo_units>  (352) 
UO_0000065

>  <canonical_smiles>  (352) 
COc1cc(CC#Cc2c(C)nc(N)nc2N)cc(OC)c1OC

>  <parent_molecule_chembl_id>  (352) 
CHEMBL220159

>  <assay_type>  (352) 
B

>  <src_id>  (352) 
1

>  <ligand_efficiency>  (352) 
{u'le': u'0.36', u'bei': u'19.48', u'sei': u'6.06', u'lle': u'3.98'}

>  <standard_flag>  (352) 
True

>  <molecule_chembl_id>  (352) 
CHEMBL220159

>  <target_organism>  (352) 
Homo sapiens

>  <standard_units>  (352) 
nM

>  <record_id>  (352) 
803132

>  <document_chembl_id>  (352) 
CHEMBL1140220

>  <bao_format>  (352) 
BAO_0000357

>  <data_validity_description>  (352) 
None

>  <activity_id>  (352) 
2383070

>  <standard_type>  (352) 
IC50

>  <target_chembl_id>  (352) 
CHEMBL202

>  <data_validity_comment>  (352) 
None

>  <published_value>  (352) 
0.4

>  <document_year>  (352) 
2008

>  <target_pref_name>  (352) 
Dihydrofolate reductase

>  <assay_chembl_id>  (352) 
CHEMBL999460

>  <standard_relation>  (352) 
=

>  <assay_description>  (352) 
Inhibition of human DHFR assessed as rate of enzyme-dependent NADPH oxidation

>  <published_relation>  (352) 
=

>  <standard_value>  (352) 
400

>  <qudt_units>  (352) 
http://www.openphacts.org/units/Nanomolar

>  <target_tax_id>  (352) 
9606

>  <bao_label>  (352) 
single protein format

>  <published_units>  (352) 
uM

>  <pchembl_value>  (352) 
6.4

>  <published_type>  (352) 
IC50

>  <activity_comment>  (352) 
None

$$$$

     RDKit          

 24 25  0  0  0  0  0  0  0  0999 V2000
    0.0000    0.0000    0.0000 C   0  0  0  0  0  0  0  0  0  0  0  0
    0.0000    0.0000    0.0000 O   0  0  0  0  0  0  0  0  0  0  0  0
    0.0000    0.0000    0.0000 C   0  0  0  0  0  0  0  0  0  0  0  0
    0.0000    0.0000    0.0000 C   0  0  0  0  0  0  0  0  0  0  0  0
    0.0000    0.0000    0.0000 C   0  0  0  0  0  0  0  0  0  0  0  0
    0.0000    0.0000    0.0000 C   0  0  0  0  0  0  0  0  0  0  0  0
    0.0000    0.0000    0.0000 C   0  0  0  0  0  0  0  0  0  0  0  0
    0.0000    0.0000    0.0000 O   0  0  0  0  0  0  0  0  0  0  0  0
    0.0000    0.0000    0.0000 C   0  0  0  0  0  0  0  0  0  0  0  0
    0.0000    0.0000    0.0000 C   0  0  0  0  0  0  0  0  0  0  0  0
    0.0000    0.0000    0.0000 O   0  0  0  0  0  0  0  0  0  0  0  0
    0.0000    0.0000    0.0000 C   0  0  0  0  0  0  0  0  0  0  0  0
    0.0000    0.0000    0.0000 C   0  0  0  0  0  0  0  0  0  0  0  0
    0.0000    0.0000    0.0000 C   0  0  0  0  0  0  0  0  0  0  0  0
    0.0000    0.0000    0.0000 C   0  0  0  0  0  0  0  0  0  0  0  0
    0.0000    0.0000    0.0000 C   0  0  0  0  0  0  0  0  0  0  0  0
    0.0000    0.0000    0.0000 C   0  0  0  0  0  0  0  0  0  0  0  0
    0.0000    0.0000    0.0000 C   0  0  0  0  0  0  0  0  0  0  0  0
    0.0000    0.0000    0.0000 N   0  0  0  0  0  0  0  0  0  0  0  0
    0.0000    0.0000    0.0000 C   0  0  0  0  0  0  0  0  0  0  0  0
    0.0000    0.0000    0.0000 N   0  0  0  0  0  0  0  0  0  0  0  0
    0.0000    0.0000    0.0000 N   0  0  0  0  0  0  0  0  0  0  0  0
    0.0000    0.0000    0.0000 C   0  0  0  0  0  0  0  0  0  0  0  0
    0.0000    0.0000    0.0000 N   0  0  0  0  0  0  0  0  0  0  0  0
  1  2  1  0
  2  3  1  0
  3  4  2  0
  4  5  1  0
  5  6  2  0
  6  7  1  0
  7  8  1  0
  8  9  1  0
  7 10  2  0
 10 11  1  0
 11 12  1  0
  5 13  1  0
 13 14  1  0
 13 15  1  0
 15 16  3  0
 16 17  1  0
 17 18  2  0
 18 19  1  0
 19 20  2  0
 20 21  1  0
 20 22  1  0
 22 23  2  0
 23 24  1  0
 10  3  1  0
 23 17  1  0
M  END
>  <pIC50>  (353) 
5.84

>  <ChEMBL_ID>  (353) 
CHEMBL219889

>  <document_journal>  (353) 
J. Med. Chem.

>  <bao_endpoint>  (353) 
BAO_0000190

>  <potential_duplicate>  (353) 
False

>  <uo_units>  (353) 
UO_0000065

>  <canonical_smiles>  (353) 
COc1cc(cc(OC)c1OC)C(C)C#Cc2cnc(N)nc2N

>  <parent_molecule_chembl_id>  (353) 
CHEMBL219889

>  <assay_type>  (353) 
B

>  <src_id>  (353) 
1

>  <ligand_efficiency>  (353) 
{u'le': u'0.33', u'bei': u'17.77', u'sei': u'5.53', u'lle': u'3.45'}

>  <standard_flag>  (353) 
True

>  <molecule_chembl_id>  (353) 
CHEMBL219889

>  <target_organism>  (353) 
Homo sapiens

>  <standard_units>  (353) 
nM

>  <record_id>  (353) 
803215

>  <document_chembl_id>  (353) 
CHEMBL1140220

>  <bao_format>  (353) 
BAO_0000357

>  <data_validity_description>  (353) 
None

>  <activity_id>  (353) 
2383071

>  <standard_type>  (353) 
IC50

>  <target_chembl_id>  (353) 
CHEMBL202

>  <data_validity_comment>  (353) 
None

>  <published_value>  (353) 
1.46

>  <document_year>  (353) 
2008

>  <target_pref_name>  (353) 
Dihydrofolate reductase

>  <assay_chembl_id>  (353) 
CHEMBL999460

>  <standard_relation>  (353) 
=

>  <assay_description>  (353) 
Inhibition of human DHFR assessed as rate of enzyme-dependent NADPH oxidation

>  <published_relation>  (353) 
=

>  <standard_value>  (353) 
1460

>  <qudt_units>  (353) 
http://www.openphacts.org/units/Nanomolar

>  <target_tax_id>  (353) 
9606

>  <bao_label>  (353) 
single protein format

>  <published_units>  (353) 
uM

>  <pchembl_value>  (353) 
5.84

>  <published_type>  (353) 
IC50

>  <activity_comment>  (353) 
None

$$$$

     RDKit          

 24 25  0  0  0  0  0  0  0  0999 V2000
    0.0000    0.0000    0.0000 C   0  0  0  0  0  0  0  0  0  0  0  0
    0.0000    0.0000    0.0000 O   0  0  0  0  0  0  0  0  0  0  0  0
    0.0000    0.0000    0.0000 C   0  0  0  0  0  0  0  0  0  0  0  0
    0.0000    0.0000    0.0000 C   0  0  0  0  0  0  0  0  0  0  0  0
    0.0000    0.0000    0.0000 C   0  0  0  0  0  0  0  0  0  0  0  0
    0.0000    0.0000    0.0000 C   0  0  0  0  0  0  0  0  0  0  0  0
    0.0000    0.0000    0.0000 C   0  0  0  0  0  0  0  0  0  0  0  0
    0.0000    0.0000    0.0000 O   0  0  0  0  0  0  0  0  0  0  0  0
    0.0000    0.0000    0.0000 C   0  0  0  0  0  0  0  0  0  0  0  0
    0.0000    0.0000    0.0000 C   0  0  0  0  0  0  0  0  0  0  0  0
    0.0000    0.0000    0.0000 O   0  0  0  0  0  0  0  0  0  0  0  0
    0.0000    0.0000    0.0000 C   0  0  0  0  0  0  0  0  0  0  0  0
    0.0000    0.0000    0.0000 C   0  0  0  0  0  0  0  0  0  0  0  0
    0.0000    0.0000    0.0000 O   0  0  0  0  0  0  0  0  0  0  0  0
    0.0000    0.0000    0.0000 C   0  0  0  0  0  0  0  0  0  0  0  0
    0.0000    0.0000    0.0000 C   0  0  0  0  0  0  0  0  0  0  0  0
    0.0000    0.0000    0.0000 C   0  0  0  0  0  0  0  0  0  0  0  0
    0.0000    0.0000    0.0000 C   0  0  0  0  0  0  0  0  0  0  0  0
    0.0000    0.0000    0.0000 N   0  0  0  0  0  0  0  0  0  0  0  0
    0.0000    0.0000    0.0000 C   0  0  0  0  0  0  0  0  0  0  0  0
    0.0000    0.0000    0.0000 N   0  0  0  0  0  0  0  0  0  0  0  0
    0.0000    0.0000    0.0000 N   0  0  0  0  0  0  0  0  0  0  0  0
    0.0000    0.0000    0.0000 C   0  0  0  0  0  0  0  0  0  0  0  0
    0.0000    0.0000    0.0000 N   0  0  0  0  0  0  0  0  0  0  0  0
  1  2  1  0
  2  3  1  0
  3  4  2  0
  4  5  1  0
  5  6  2  0
  6  7  1  0
  7  8  1  0
  8  9  1  0
  7 10  2  0
 10 11  1  0
 11 12  1  0
  5 13  1  0
 13 14  1  0
 13 15  1  0
 15 16  3  0
 16 17  1  0
 17 18  2  0
 18 19  1  0
 19 20  2  0
 20 21  1  0
 20 22  1  0
 22 23  2  0
 23 24  1  0
 10  3  1  0
 23 17  1  0
M  END
>  <pIC50>  (354) 
4.85

>  <ChEMBL_ID>  (354) 
CHEMBL384443

>  <document_journal>  (354) 
J. Med. Chem.

>  <bao_endpoint>  (354) 
BAO_0000190

>  <potential_duplicate>  (354) 
False

>  <uo_units>  (354) 
UO_0000065

>  <canonical_smiles>  (354) 
COc1cc(cc(OC)c1OC)C(O)C#Cc2cnc(N)nc2N

>  <parent_molecule_chembl_id>  (354) 
CHEMBL384443

>  <assay_type>  (354) 
B

>  <src_id>  (354) 
1

>  <ligand_efficiency>  (354) 
{u'le': u'0.28', u'bei': u'14.67', u'sei': u'3.85', u'lle': u'3.67'}

>  <standard_flag>  (354) 
True

>  <molecule_chembl_id>  (354) 
CHEMBL384443

>  <target_organism>  (354) 
Homo sapiens

>  <standard_units>  (354) 
nM

>  <record_id>  (354) 
803216

>  <document_chembl_id>  (354) 
CHEMBL1140220

>  <bao_format>  (354) 
BAO_0000357

>  <data_validity_description>  (354) 
None

>  <activity_id>  (354) 
2383072

>  <standard_type>  (354) 
IC50

>  <target_chembl_id>  (354) 
CHEMBL202

>  <data_validity_comment>  (354) 
None

>  <published_value>  (354) 
14.3

>  <document_year>  (354) 
2008

>  <target_pref_name>  (354) 
Dihydrofolate reductase

>  <assay_chembl_id>  (354) 
CHEMBL999460

>  <standard_relation>  (354) 
=

>  <assay_description>  (354) 
Inhibition of human DHFR assessed as rate of enzyme-dependent NADPH oxidation

>  <published_relation>  (354) 
=

>  <standard_value>  (354) 
14300

>  <qudt_units>  (354) 
http://www.openphacts.org/units/Nanomolar

>  <target_tax_id>  (354) 
9606

>  <bao_label>  (354) 
single protein format

>  <published_units>  (354) 
uM

>  <pchembl_value>  (354) 
4.85

>  <published_type>  (354) 
IC50

>  <activity_comment>  (354) 
None

$$$$

     RDKit          

 25 26  0  0  0  0  0  0  0  0999 V2000
    0.0000    0.0000    0.0000 C   0  0  0  0  0  0  0  0  0  0  0  0
    0.0000    0.0000    0.0000 O   0  0  0  0  0  0  0  0  0  0  0  0
    0.0000    0.0000    0.0000 C   0  0  0  0  0  0  0  0  0  0  0  0
    0.0000    0.0000    0.0000 C   0  0  0  0  0  0  0  0  0  0  0  0
    0.0000    0.0000    0.0000 C   0  0  0  0  0  0  0  0  0  0  0  0
    0.0000    0.0000    0.0000 C   0  0  0  0  0  0  0  0  0  0  0  0
    0.0000    0.0000    0.0000 C   0  0  0  0  0  0  0  0  0  0  0  0
    0.0000    0.0000    0.0000 N   0  0  0  0  0  0  0  0  0  0  0  0
    0.0000    0.0000    0.0000 C   0  0  0  0  0  0  0  0  0  0  0  0
    0.0000    0.0000    0.0000 N   0  0  0  0  0  0  0  0  0  0  0  0
    0.0000    0.0000    0.0000 N   0  0  0  0  0  0  0  0  0  0  0  0
    0.0000    0.0000    0.0000 C   0  0  0  0  0  0  0  0  0  0  0  0
    0.0000    0.0000    0.0000 N   0  0  0  0  0  0  0  0  0  0  0  0
    0.0000    0.0000    0.0000 C   0  0  0  0  0  0  0  0  0  0  0  0
    0.0000    0.0000    0.0000 C   0  0  0  0  0  0  0  0  0  0  0  0
    0.0000    0.0000    0.0000 C   0  0  0  0  0  0  0  0  0  0  0  0
    0.0000    0.0000    0.0000 O   0  0  0  0  0  0  0  0  0  0  0  0
    0.0000    0.0000    0.0000 C   0  0  0  0  0  0  0  0  0  0  0  0
    0.0000    0.0000    0.0000 C   0  0  0  0  0  0  0  0  0  0  0  0
    0.0000    0.0000    0.0000 O   0  0  0  0  0  0  0  0  0  0  0  0
    0.0000    0.0000    0.0000 C   0  0  0  0  0  0  0  0  0  0  0  0
    0.0000    0.0000    0.0000 C   0  0  0  0  0  0  0  0  0  0  0  0
    0.0000    0.0000    0.0000 O   0  0  0  0  0  0  0  0  0  0  0  0
    0.0000    0.0000    0.0000 C   0  0  0  0  0  0  0  0  0  0  0  0
    0.0000    0.0000    0.0000 C   0  0  0  0  0  0  0  0  0  0  0  0
  1  2  1  0
  2  3  1  0
  3  4  1  0
  4  5  3  0
  5  6  1  0
  6  7  2  0
  7  8  1  0
  8  9  2  0
  9 10  1  0
  9 11  1  0
 11 12  2  0
 12 13  1  0
  3 14  1  0
 14 15  2  0
 15 16  1  0
 16 17  1  0
 17 18  1  0
 16 19  2  0
 19 20  1  0
 20 21  1  0
 19 22  1  0
 22 23  1  0
 23 24  1  0
 22 25  2  0
 12  6  1  0
 25 14  1  0
M  END
>  <pIC50>  (355) 
5.94

>  <ChEMBL_ID>  (355) 
CHEMBL220936

>  <document_journal>  (355) 
J. Med. Chem.

>  <bao_endpoint>  (355) 
BAO_0000190

>  <potential_duplicate>  (355) 
False

>  <uo_units>  (355) 
UO_0000065

>  <canonical_smiles>  (355) 
COC(C#Cc1cnc(N)nc1N)c2cc(OC)c(OC)c(OC)c2

>  <parent_molecule_chembl_id>  (355) 
CHEMBL220936

>  <assay_type>  (355) 
B

>  <src_id>  (355) 
1

>  <ligand_efficiency>  (355) 
{u'le': u'0.32', u'bei': u'17.24', u'sei': u'5.17', u'lle': u'4.36'}

>  <standard_flag>  (355) 
True

>  <molecule_chembl_id>  (355) 
CHEMBL220936

>  <target_organism>  (355) 
Homo sapiens

>  <standard_units>  (355) 
nM

>  <record_id>  (355) 
803217

>  <document_chembl_id>  (355) 
CHEMBL1140220

>  <bao_format>  (355) 
BAO_0000357

>  <data_validity_description>  (355) 
None

>  <activity_id>  (355) 
2383073

>  <standard_type>  (355) 
IC50

>  <target_chembl_id>  (355) 
CHEMBL202

>  <data_validity_comment>  (355) 
None

>  <published_value>  (355) 
1.16

>  <document_year>  (355) 
2008

>  <target_pref_name>  (355) 
Dihydrofolate reductase

>  <assay_chembl_id>  (355) 
CHEMBL999460

>  <standard_relation>  (355) 
=

>  <assay_description>  (355) 
Inhibition of human DHFR assessed as rate of enzyme-dependent NADPH oxidation

>  <published_relation>  (355) 
=

>  <standard_value>  (355) 
1160

>  <qudt_units>  (355) 
http://www.openphacts.org/units/Nanomolar

>  <target_tax_id>  (355) 
9606

>  <bao_label>  (355) 
single protein format

>  <published_units>  (355) 
uM

>  <pchembl_value>  (355) 
5.94

>  <published_type>  (355) 
IC50

>  <activity_comment>  (355) 
None

$$$$

     RDKit          

 25 26  0  0  0  0  0  0  0  0999 V2000
    0.0000    0.0000    0.0000 C   0  0  0  0  0  0  0  0  0  0  0  0
    0.0000    0.0000    0.0000 O   0  0  0  0  0  0  0  0  0  0  0  0
    0.0000    0.0000    0.0000 C   0  0  0  0  0  0  0  0  0  0  0  0
    0.0000    0.0000    0.0000 C   0  0  0  0  0  0  0  0  0  0  0  0
    0.0000    0.0000    0.0000 C   0  0  0  0  0  0  0  0  0  0  0  0
    0.0000    0.0000    0.0000 C   0  0  0  0  0  0  0  0  0  0  0  0
    0.0000    0.0000    0.0000 C   0  0  0  0  0  0  0  0  0  0  0  0
    0.0000    0.0000    0.0000 O   0  0  0  0  0  0  0  0  0  0  0  0
    0.0000    0.0000    0.0000 C   0  0  0  0  0  0  0  0  0  0  0  0
    0.0000    0.0000    0.0000 C   0  0  0  0  0  0  0  0  0  0  0  0
    0.0000    0.0000    0.0000 O   0  0  0  0  0  0  0  0  0  0  0  0
    0.0000    0.0000    0.0000 C   0  0  0  0  0  0  0  0  0  0  0  0
    0.0000    0.0000    0.0000 C   0  0  0  0  0  0  0  0  0  0  0  0
    0.0000    0.0000    0.0000 C   0  0  0  0  0  0  0  0  0  0  0  0
    0.0000    0.0000    0.0000 C   0  0  0  0  0  0  0  0  0  0  0  0
    0.0000    0.0000    0.0000 C   0  0  0  0  0  0  0  0  0  0  0  0
    0.0000    0.0000    0.0000 C   0  0  0  0  0  0  0  0  0  0  0  0
    0.0000    0.0000    0.0000 C   0  0  0  0  0  0  0  0  0  0  0  0
    0.0000    0.0000    0.0000 C   0  0  0  0  0  0  0  0  0  0  0  0
    0.0000    0.0000    0.0000 N   0  0  0  0  0  0  0  0  0  0  0  0
    0.0000    0.0000    0.0000 C   0  0  0  0  0  0  0  0  0  0  0  0
    0.0000    0.0000    0.0000 N   0  0  0  0  0  0  0  0  0  0  0  0
    0.0000    0.0000    0.0000 N   0  0  0  0  0  0  0  0  0  0  0  0
    0.0000    0.0000    0.0000 C   0  0  0  0  0  0  0  0  0  0  0  0
    0.0000    0.0000    0.0000 N   0  0  0  0  0  0  0  0  0  0  0  0
  1  2  1  0
  2  3  1  0
  3  4  2  0
  4  5  1  0
  5  6  2  0
  6  7  1  0
  7  8  1  0
  8  9  1  0
  7 10  2  0
 10 11  1  0
 11 12  1  0
  5 13  1  0
 13 14  1  0
 13 15  1  0
 15 16  3  0
 16 17  1  0
 17 18  2  0
 18 19  1  0
 18 20  1  0
 20 21  2  0
 21 22  1  0
 21 23  1  0
 23 24  2  0
 24 25  1  0
 10  3  1  0
 24 17  1  0
M  END
>  <pIC50>  (356) 
5.86

>  <ChEMBL_ID>  (356) 
CHEMBL222461

>  <document_journal>  (356) 
J. Med. Chem.

>  <bao_endpoint>  (356) 
BAO_0000190

>  <potential_duplicate>  (356) 
False

>  <uo_units>  (356) 
UO_0000065

>  <canonical_smiles>  (356) 
COc1cc(cc(OC)c1OC)C(C)C#Cc2c(C)nc(N)nc2N

>  <parent_molecule_chembl_id>  (356) 
CHEMBL222461

>  <assay_type>  (356) 
B

>  <src_id>  (356) 
1

>  <ligand_efficiency>  (356) 
{u'le': u'0.32', u'bei': u'17.12', u'sei': u'5.55', u'lle': u'3.19'}

>  <standard_flag>  (356) 
True

>  <molecule_chembl_id>  (356) 
CHEMBL222461

>  <target_organism>  (356) 
Homo sapiens

>  <standard_units>  (356) 
nM

>  <record_id>  (356) 
803218

>  <document_chembl_id>  (356) 
CHEMBL1140220

>  <bao_format>  (356) 
BAO_0000357

>  <data_validity_description>  (356) 
None

>  <activity_id>  (356) 
2383074

>  <standard_type>  (356) 
IC50

>  <target_chembl_id>  (356) 
CHEMBL202

>  <data_validity_comment>  (356) 
None

>  <published_value>  (356) 
1.38

>  <document_year>  (356) 
2008

>  <target_pref_name>  (356) 
Dihydrofolate reductase

>  <assay_chembl_id>  (356) 
CHEMBL999460

>  <standard_relation>  (356) 
=

>  <assay_description>  (356) 
Inhibition of human DHFR assessed as rate of enzyme-dependent NADPH oxidation

>  <published_relation>  (356) 
=

>  <standard_value>  (356) 
1380

>  <qudt_units>  (356) 
http://www.openphacts.org/units/Nanomolar

>  <target_tax_id>  (356) 
9606

>  <bao_label>  (356) 
single protein format

>  <published_units>  (356) 
uM

>  <pchembl_value>  (356) 
5.86

>  <published_type>  (356) 
IC50

>  <activity_comment>  (356) 
None

$$$$

     RDKit          

 25 26  0  0  0  0  0  0  0  0999 V2000
    0.0000    0.0000    0.0000 C   0  0  0  0  0  0  0  0  0  0  0  0
    0.0000    0.0000    0.0000 O   0  0  0  0  0  0  0  0  0  0  0  0
    0.0000    0.0000    0.0000 C   0  0  0  0  0  0  0  0  0  0  0  0
    0.0000    0.0000    0.0000 C   0  0  0  0  0  0  0  0  0  0  0  0
    0.0000    0.0000    0.0000 C   0  0  0  0  0  0  0  0  0  0  0  0
    0.0000    0.0000    0.0000 C   0  0  0  0  0  0  0  0  0  0  0  0
    0.0000    0.0000    0.0000 C   0  0  0  0  0  0  0  0  0  0  0  0
    0.0000    0.0000    0.0000 O   0  0  0  0  0  0  0  0  0  0  0  0
    0.0000    0.0000    0.0000 C   0  0  0  0  0  0  0  0  0  0  0  0
    0.0000    0.0000    0.0000 C   0  0  0  0  0  0  0  0  0  0  0  0
    0.0000    0.0000    0.0000 O   0  0  0  0  0  0  0  0  0  0  0  0
    0.0000    0.0000    0.0000 C   0  0  0  0  0  0  0  0  0  0  0  0
    0.0000    0.0000    0.0000 C   0  0  0  0  0  0  0  0  0  0  0  0
    0.0000    0.0000    0.0000 O   0  0  0  0  0  0  0  0  0  0  0  0
    0.0000    0.0000    0.0000 C   0  0  0  0  0  0  0  0  0  0  0  0
    0.0000    0.0000    0.0000 C   0  0  0  0  0  0  0  0  0  0  0  0
    0.0000    0.0000    0.0000 C   0  0  0  0  0  0  0  0  0  0  0  0
    0.0000    0.0000    0.0000 C   0  0  0  0  0  0  0  0  0  0  0  0
    0.0000    0.0000    0.0000 C   0  0  0  0  0  0  0  0  0  0  0  0
    0.0000    0.0000    0.0000 N   0  0  0  0  0  0  0  0  0  0  0  0
    0.0000    0.0000    0.0000 C   0  0  0  0  0  0  0  0  0  0  0  0
    0.0000    0.0000    0.0000 N   0  0  0  0  0  0  0  0  0  0  0  0
    0.0000    0.0000    0.0000 N   0  0  0  0  0  0  0  0  0  0  0  0
    0.0000    0.0000    0.0000 C   0  0  0  0  0  0  0  0  0  0  0  0
    0.0000    0.0000    0.0000 N   0  0  0  0  0  0  0  0  0  0  0  0
  1  2  1  0
  2  3  1  0
  3  4  2  0
  4  5  1  0
  5  6  2  0
  6  7  1  0
  7  8  1  0
  8  9  1  0
  7 10  2  0
 10 11  1  0
 11 12  1  0
  5 13  1  0
 13 14  1  0
 13 15  1  0
 15 16  3  0
 16 17  1  0
 17 18  2  0
 18 19  1  0
 18 20  1  0
 20 21  2  0
 21 22  1  0
 21 23  1  0
 23 24  2  0
 24 25  1  0
 10  3  1  0
 24 17  1  0
M  END
>  <pIC50>  (357) 
5.24

>  <ChEMBL_ID>  (357) 
CHEMBL221172

>  <document_journal>  (357) 
J. Med. Chem.

>  <bao_endpoint>  (357) 
BAO_0000190

>  <potential_duplicate>  (357) 
False

>  <uo_units>  (357) 
UO_0000065

>  <canonical_smiles>  (357) 
COc1cc(cc(OC)c1OC)C(O)C#Cc2c(C)nc(N)nc2N

>  <parent_molecule_chembl_id>  (357) 
CHEMBL221172

>  <assay_type>  (357) 
B

>  <src_id>  (357) 
1

>  <ligand_efficiency>  (357) 
{u'le': u'0.29', u'bei': u'15.23', u'sei': u'4.17', u'lle': u'3.79'}

>  <standard_flag>  (357) 
True

>  <molecule_chembl_id>  (357) 
CHEMBL221172

>  <target_organism>  (357) 
Homo sapiens

>  <standard_units>  (357) 
nM

>  <record_id>  (357) 
803219

>  <document_chembl_id>  (357) 
CHEMBL1140220

>  <bao_format>  (357) 
BAO_0000357

>  <data_validity_description>  (357) 
None

>  <activity_id>  (357) 
2383075

>  <standard_type>  (357) 
IC50

>  <target_chembl_id>  (357) 
CHEMBL202

>  <data_validity_comment>  (357) 
None

>  <published_value>  (357) 
5.71

>  <document_year>  (357) 
2008

>  <target_pref_name>  (357) 
Dihydrofolate reductase

>  <assay_chembl_id>  (357) 
CHEMBL999460

>  <standard_relation>  (357) 
=

>  <assay_description>  (357) 
Inhibition of human DHFR assessed as rate of enzyme-dependent NADPH oxidation

>  <published_relation>  (357) 
=

>  <standard_value>  (357) 
5710

>  <qudt_units>  (357) 
http://www.openphacts.org/units/Nanomolar

>  <target_tax_id>  (357) 
9606

>  <bao_label>  (357) 
single protein format

>  <published_units>  (357) 
uM

>  <pchembl_value>  (357) 
5.24

>  <published_type>  (357) 
IC50

>  <activity_comment>  (357) 
None

$$$$

     RDKit          

 26 27  0  0  0  0  0  0  0  0999 V2000
    0.0000    0.0000    0.0000 C   0  0  0  0  0  0  0  0  0  0  0  0
    0.0000    0.0000    0.0000 O   0  0  0  0  0  0  0  0  0  0  0  0
    0.0000    0.0000    0.0000 C   0  0  0  0  0  0  0  0  0  0  0  0
    0.0000    0.0000    0.0000 C   0  0  0  0  0  0  0  0  0  0  0  0
    0.0000    0.0000    0.0000 C   0  0  0  0  0  0  0  0  0  0  0  0
    0.0000    0.0000    0.0000 C   0  0  0  0  0  0  0  0  0  0  0  0
    0.0000    0.0000    0.0000 C   0  0  0  0  0  0  0  0  0  0  0  0
    0.0000    0.0000    0.0000 C   0  0  0  0  0  0  0  0  0  0  0  0
    0.0000    0.0000    0.0000 N   0  0  0  0  0  0  0  0  0  0  0  0
    0.0000    0.0000    0.0000 C   0  0  0  0  0  0  0  0  0  0  0  0
    0.0000    0.0000    0.0000 N   0  0  0  0  0  0  0  0  0  0  0  0
    0.0000    0.0000    0.0000 N   0  0  0  0  0  0  0  0  0  0  0  0
    0.0000    0.0000    0.0000 C   0  0  0  0  0  0  0  0  0  0  0  0
    0.0000    0.0000    0.0000 N   0  0  0  0  0  0  0  0  0  0  0  0
    0.0000    0.0000    0.0000 C   0  0  0  0  0  0  0  0  0  0  0  0
    0.0000    0.0000    0.0000 C   0  0  0  0  0  0  0  0  0  0  0  0
    0.0000    0.0000    0.0000 C   0  0  0  0  0  0  0  0  0  0  0  0
    0.0000    0.0000    0.0000 O   0  0  0  0  0  0  0  0  0  0  0  0
    0.0000    0.0000    0.0000 C   0  0  0  0  0  0  0  0  0  0  0  0
    0.0000    0.0000    0.0000 C   0  0  0  0  0  0  0  0  0  0  0  0
    0.0000    0.0000    0.0000 O   0  0  0  0  0  0  0  0  0  0  0  0
    0.0000    0.0000    0.0000 C   0  0  0  0  0  0  0  0  0  0  0  0
    0.0000    0.0000    0.0000 C   0  0  0  0  0  0  0  0  0  0  0  0
    0.0000    0.0000    0.0000 O   0  0  0  0  0  0  0  0  0  0  0  0
    0.0000    0.0000    0.0000 C   0  0  0  0  0  0  0  0  0  0  0  0
    0.0000    0.0000    0.0000 C   0  0  0  0  0  0  0  0  0  0  0  0
  1  2  1  0
  2  3  1  0
  3  4  1  0
  4  5  3  0
  5  6  1  0
  6  7  2  0
  7  8  1  0
  7  9  1  0
  9 10  2  0
 10 11  1  0
 10 12  1  0
 12 13  2  0
 13 14  1  0
  3 15  1  0
 15 16  2  0
 16 17  1  0
 17 18  1  0
 18 19  1  0
 17 20  2  0
 20 21  1  0
 21 22  1  0
 20 23  1  0
 23 24  1  0
 24 25  1  0
 23 26  2  0
 13  6  1  0
 26 15  1  0
M  END
>  <pIC50>  (358) 
5.91

>  <ChEMBL_ID>  (358) 
CHEMBL220937

>  <document_journal>  (358) 
J. Med. Chem.

>  <bao_endpoint>  (358) 
BAO_0000190

>  <potential_duplicate>  (358) 
False

>  <uo_units>  (358) 
UO_0000065

>  <canonical_smiles>  (358) 
COC(C#Cc1c(C)nc(N)nc1N)c2cc(OC)c(OC)c(OC)c2

>  <parent_molecule_chembl_id>  (358) 
CHEMBL220937

>  <assay_type>  (358) 
B

>  <src_id>  (358) 
1

>  <ligand_efficiency>  (358) 
{u'le': u'0.31', u'bei': u'16.5', u'sei': u'5.15', u'lle': u'4.05'}

>  <standard_flag>  (358) 
True

>  <molecule_chembl_id>  (358) 
CHEMBL220937

>  <target_organism>  (358) 
Homo sapiens

>  <standard_units>  (358) 
nM

>  <record_id>  (358) 
803319

>  <document_chembl_id>  (358) 
CHEMBL1140220

>  <bao_format>  (358) 
BAO_0000357

>  <data_validity_description>  (358) 
None

>  <activity_id>  (358) 
2383076

>  <standard_type>  (358) 
IC50

>  <target_chembl_id>  (358) 
CHEMBL202

>  <data_validity_comment>  (358) 
None

>  <published_value>  (358) 
1.22

>  <document_year>  (358) 
2008

>  <target_pref_name>  (358) 
Dihydrofolate reductase

>  <assay_chembl_id>  (358) 
CHEMBL999460

>  <standard_relation>  (358) 
=

>  <assay_description>  (358) 
Inhibition of human DHFR assessed as rate of enzyme-dependent NADPH oxidation

>  <published_relation>  (358) 
=

>  <standard_value>  (358) 
1220

>  <qudt_units>  (358) 
http://www.openphacts.org/units/Nanomolar

>  <target_tax_id>  (358) 
9606

>  <bao_label>  (358) 
single protein format

>  <published_units>  (358) 
uM

>  <pchembl_value>  (358) 
5.91

>  <published_type>  (358) 
IC50

>  <activity_comment>  (358) 
None

$$$$

     RDKit          

 21 22  0  0  0  0  0  0  0  0999 V2000
    0.0000    0.0000    0.0000 C   0  0  0  0  0  0  0  0  0  0  0  0
    0.0000    0.0000    0.0000 O   0  0  0  0  0  0  0  0  0  0  0  0
    0.0000    0.0000    0.0000 C   0  0  0  0  0  0  0  0  0  0  0  0
    0.0000    0.0000    0.0000 C   0  0  0  0  0  0  0  0  0  0  0  0
    0.0000    0.0000    0.0000 C   0  0  0  0  0  0  0  0  0  0  0  0
    0.0000    0.0000    0.0000 C   0  0  0  0  0  0  0  0  0  0  0  0
    0.0000    0.0000    0.0000 O   0  0  0  0  0  0  0  0  0  0  0  0
    0.0000    0.0000    0.0000 C   0  0  0  0  0  0  0  0  0  0  0  0
    0.0000    0.0000    0.0000 C   0  0  0  0  0  0  0  0  0  0  0  0
    0.0000    0.0000    0.0000 C   0  0  0  0  0  0  0  0  0  0  0  0
    0.0000    0.0000    0.0000 C   0  0  0  0  0  0  0  0  0  0  0  0
    0.0000    0.0000    0.0000 C   0  0  0  0  0  0  0  0  0  0  0  0
    0.0000    0.0000    0.0000 C   0  0  0  0  0  0  0  0  0  0  0  0
    0.0000    0.0000    0.0000 C   0  0  0  0  0  0  0  0  0  0  0  0
    0.0000    0.0000    0.0000 N   0  0  0  0  0  0  0  0  0  0  0  0
    0.0000    0.0000    0.0000 C   0  0  0  0  0  0  0  0  0  0  0  0
    0.0000    0.0000    0.0000 N   0  0  0  0  0  0  0  0  0  0  0  0
    0.0000    0.0000    0.0000 N   0  0  0  0  0  0  0  0  0  0  0  0
    0.0000    0.0000    0.0000 C   0  0  0  0  0  0  0  0  0  0  0  0
    0.0000    0.0000    0.0000 N   0  0  0  0  0  0  0  0  0  0  0  0
    0.0000    0.0000    0.0000 C   0  0  0  0  0  0  0  0  0  0  0  0
  1  2  1  0
  2  3  1  0
  3  4  2  0
  4  5  1  0
  5  6  2  0
  6  7  1  0
  7  8  1  0
  6  9  1  0
  9 10  1  0
 10 11  1  0
 11 12  3  0
 12 13  1  0
 13 14  2  0
 14 15  1  0
 15 16  2  0
 16 17  1  0
 16 18  1  0
 18 19  2  0
 19 20  1  0
  9 21  2  0
 21  3  1  0
 19 13  1  0
M  END
>  <pIC50>  (359) 
5.5

>  <ChEMBL_ID>  (359) 
CHEMBL521055

>  <document_journal>  (359) 
J. Med. Chem.

>  <bao_endpoint>  (359) 
BAO_0000190

>  <potential_duplicate>  (359) 
False

>  <uo_units>  (359) 
UO_0000065

>  <canonical_smiles>  (359) 
COc1ccc(OC)c(CC#Cc2cnc(N)nc2N)c1

>  <parent_molecule_chembl_id>  (359) 
CHEMBL521055

>  <assay_type>  (359) 
B

>  <src_id>  (359) 
1

>  <ligand_efficiency>  (359) 
{u'le': u'0.36', u'bei': u'19.33', u'sei': u'5.71', u'lle': u'3.34'}

>  <standard_flag>  (359) 
True

>  <molecule_chembl_id>  (359) 
CHEMBL521055

>  <target_organism>  (359) 
Homo sapiens

>  <standard_units>  (359) 
nM

>  <record_id>  (359) 
803320

>  <document_chembl_id>  (359) 
CHEMBL1140220

>  <bao_format>  (359) 
BAO_0000357

>  <data_validity_description>  (359) 
None

>  <activity_id>  (359) 
2383077

>  <standard_type>  (359) 
IC50

>  <target_chembl_id>  (359) 
CHEMBL202

>  <data_validity_comment>  (359) 
None

>  <published_value>  (359) 
3.2

>  <document_year>  (359) 
2008

>  <target_pref_name>  (359) 
Dihydrofolate reductase

>  <assay_chembl_id>  (359) 
CHEMBL999460

>  <standard_relation>  (359) 
=

>  <assay_description>  (359) 
Inhibition of human DHFR assessed as rate of enzyme-dependent NADPH oxidation

>  <published_relation>  (359) 
=

>  <standard_value>  (359) 
3200

>  <qudt_units>  (359) 
http://www.openphacts.org/units/Nanomolar

>  <target_tax_id>  (359) 
9606

>  <bao_label>  (359) 
single protein format

>  <published_units>  (359) 
uM

>  <pchembl_value>  (359) 
5.5

>  <published_type>  (359) 
IC50

>  <activity_comment>  (359) 
None

$$$$

     RDKit          

 22 23  0  0  0  0  0  0  0  0999 V2000
    0.0000    0.0000    0.0000 C   0  0  0  0  0  0  0  0  0  0  0  0
    0.0000    0.0000    0.0000 O   0  0  0  0  0  0  0  0  0  0  0  0
    0.0000    0.0000    0.0000 C   0  0  0  0  0  0  0  0  0  0  0  0
    0.0000    0.0000    0.0000 C   0  0  0  0  0  0  0  0  0  0  0  0
    0.0000    0.0000    0.0000 C   0  0  0  0  0  0  0  0  0  0  0  0
    0.0000    0.0000    0.0000 C   0  0  0  0  0  0  0  0  0  0  0  0
    0.0000    0.0000    0.0000 O   0  0  0  0  0  0  0  0  0  0  0  0
    0.0000    0.0000    0.0000 C   0  0  0  0  0  0  0  0  0  0  0  0
    0.0000    0.0000    0.0000 C   0  0  0  0  0  0  0  0  0  0  0  0
    0.0000    0.0000    0.0000 C   0  0  0  0  0  0  0  0  0  0  0  0
    0.0000    0.0000    0.0000 C   0  0  0  0  0  0  0  0  0  0  0  0
    0.0000    0.0000    0.0000 C   0  0  0  0  0  0  0  0  0  0  0  0
    0.0000    0.0000    0.0000 C   0  0  0  0  0  0  0  0  0  0  0  0
    0.0000    0.0000    0.0000 C   0  0  0  0  0  0  0  0  0  0  0  0
    0.0000    0.0000    0.0000 C   0  0  0  0  0  0  0  0  0  0  0  0
    0.0000    0.0000    0.0000 N   0  0  0  0  0  0  0  0  0  0  0  0
    0.0000    0.0000    0.0000 C   0  0  0  0  0  0  0  0  0  0  0  0
    0.0000    0.0000    0.0000 N   0  0  0  0  0  0  0  0  0  0  0  0
    0.0000    0.0000    0.0000 N   0  0  0  0  0  0  0  0  0  0  0  0
    0.0000    0.0000    0.0000 C   0  0  0  0  0  0  0  0  0  0  0  0
    0.0000    0.0000    0.0000 N   0  0  0  0  0  0  0  0  0  0  0  0
    0.0000    0.0000    0.0000 C   0  0  0  0  0  0  0  0  0  0  0  0
  1  2  1  0
  2  3  1  0
  3  4  2  0
  4  5  1  0
  5  6  2  0
  6  7  1  0
  7  8  1  0
  6  9  1  0
  9 10  1  0
 10 11  1  0
 11 12  3  0
 12 13  1  0
 13 14  2  0
 14 15  1  0
 14 16  1  0
 16 17  2  0
 17 18  1  0
 17 19  1  0
 19 20  2  0
 20 21  1  0
  9 22  2  0
 22  3  1  0
 20 13  1  0
M  END
>  <pIC50>  (360) 
5.89

>  <ChEMBL_ID>  (360) 
CHEMBL485960

>  <document_journal>  (360) 
J. Med. Chem.

>  <bao_endpoint>  (360) 
BAO_0000190

>  <potential_duplicate>  (360) 
False

>  <uo_units>  (360) 
UO_0000065

>  <canonical_smiles>  (360) 
COc1ccc(OC)c(CC#Cc2c(C)nc(N)nc2N)c1

>  <parent_molecule_chembl_id>  (360) 
CHEMBL485960

>  <assay_type>  (360) 
B

>  <src_id>  (360) 
1

>  <ligand_efficiency>  (360) 
{u'le': u'0.37', u'bei': u'19.73', u'sei': u'6.11', u'lle': u'3.46'}

>  <standard_flag>  (360) 
True

>  <molecule_chembl_id>  (360) 
CHEMBL485960

>  <target_organism>  (360) 
Homo sapiens

>  <standard_units>  (360) 
nM

>  <record_id>  (360) 
803321

>  <document_chembl_id>  (360) 
CHEMBL1140220

>  <bao_format>  (360) 
BAO_0000357

>  <data_validity_description>  (360) 
None

>  <activity_id>  (360) 
2383078

>  <standard_type>  (360) 
IC50

>  <target_chembl_id>  (360) 
CHEMBL202

>  <data_validity_comment>  (360) 
None

>  <published_value>  (360) 
1.3

>  <document_year>  (360) 
2008

>  <target_pref_name>  (360) 
Dihydrofolate reductase

>  <assay_chembl_id>  (360) 
CHEMBL999460

>  <standard_relation>  (360) 
=

>  <assay_description>  (360) 
Inhibition of human DHFR assessed as rate of enzyme-dependent NADPH oxidation

>  <published_relation>  (360) 
=

>  <standard_value>  (360) 
1300

>  <qudt_units>  (360) 
http://www.openphacts.org/units/Nanomolar

>  <target_tax_id>  (360) 
9606

>  <bao_label>  (360) 
single protein format

>  <published_units>  (360) 
uM

>  <pchembl_value>  (360) 
5.89

>  <published_type>  (360) 
IC50

>  <activity_comment>  (360) 
None

$$$$

     RDKit          

 23 24  0  0  0  0  0  0  0  0999 V2000
    0.0000    0.0000    0.0000 C   0  0  0  0  0  0  0  0  0  0  0  0
    0.0000    0.0000    0.0000 C   0  0  0  0  0  0  0  0  0  0  0  0
    0.0000    0.0000    0.0000 C   0  0  0  0  0  0  0  0  0  0  0  0
    0.0000    0.0000    0.0000 N   0  0  0  0  0  0  0  0  0  0  0  0
    0.0000    0.0000    0.0000 C   0  0  0  0  0  0  0  0  0  0  0  0
    0.0000    0.0000    0.0000 N   0  0  0  0  0  0  0  0  0  0  0  0
    0.0000    0.0000    0.0000 N   0  0  0  0  0  0  0  0  0  0  0  0
    0.0000    0.0000    0.0000 C   0  0  0  0  0  0  0  0  0  0  0  0
    0.0000    0.0000    0.0000 N   0  0  0  0  0  0  0  0  0  0  0  0
    0.0000    0.0000    0.0000 C   0  0  0  0  0  0  0  0  0  0  0  0
    0.0000    0.0000    0.0000 C   0  0  0  0  0  0  0  0  0  0  0  0
    0.0000    0.0000    0.0000 C   0  0  0  0  0  0  0  0  0  0  0  0
    0.0000    0.0000    0.0000 C   0  0  0  0  0  0  0  0  0  0  0  0
    0.0000    0.0000    0.0000 C   0  0  0  0  0  0  0  0  0  0  0  0
    0.0000    0.0000    0.0000 C   0  0  0  0  0  0  0  0  0  0  0  0
    0.0000    0.0000    0.0000 C   0  0  0  0  0  0  0  0  0  0  0  0
    0.0000    0.0000    0.0000 O   0  0  0  0  0  0  0  0  0  0  0  0
    0.0000    0.0000    0.0000 C   0  0  0  0  0  0  0  0  0  0  0  0
    0.0000    0.0000    0.0000 C   0  0  0  0  0  0  0  0  0  0  0  0
    0.0000    0.0000    0.0000 C   0  0  0  0  0  0  0  0  0  0  0  0
    0.0000    0.0000    0.0000 C   0  0  0  0  0  0  0  0  0  0  0  0
    0.0000    0.0000    0.0000 O   0  0  0  0  0  0  0  0  0  0  0  0
    0.0000    0.0000    0.0000 C   0  0  0  0  0  0  0  0  0  0  0  0
  1  2  1  0
  2  3  1  0
  3  4  2  0
  4  5  1  0
  5  6  1  0
  5  7  2  0
  7  8  1  0
  8  9  1  0
  8 10  2  0
 10 11  1  0
 11 12  3  0
 12 13  1  0
 13 14  1  0
 14 15  2  0
 15 16  1  0
 16 17  1  0
 17 18  1  0
 16 19  2  0
 19 20  1  0
 20 21  2  0
 21 22  1  0
 22 23  1  0
 10  3  1  0
 21 14  1  0
M  END
>  <pIC50>  (361) 
5.89

>  <ChEMBL_ID>  (361) 
CHEMBL485961

>  <document_journal>  (361) 
J. Med. Chem.

>  <bao_endpoint>  (361) 
BAO_0000190

>  <potential_duplicate>  (361) 
False

>  <uo_units>  (361) 
UO_0000065

>  <canonical_smiles>  (361) 
CCc1nc(N)nc(N)c1C#CCc2cc(OC)ccc2OC

>  <parent_molecule_chembl_id>  (361) 
CHEMBL485961

>  <assay_type>  (361) 
B

>  <src_id>  (361) 
1

>  <ligand_efficiency>  (361) 
{u'le': u'0.35', u'bei': u'18.86', u'sei': u'6.12', u'lle': u'2.79'}

>  <standard_flag>  (361) 
True

>  <molecule_chembl_id>  (361) 
CHEMBL485961

>  <target_organism>  (361) 
Homo sapiens

>  <standard_units>  (361) 
nM

>  <record_id>  (361) 
803322

>  <document_chembl_id>  (361) 
CHEMBL1140220

>  <bao_format>  (361) 
BAO_0000357

>  <data_validity_description>  (361) 
None

>  <activity_id>  (361) 
2383079

>  <standard_type>  (361) 
IC50

>  <target_chembl_id>  (361) 
CHEMBL202

>  <data_validity_comment>  (361) 
None

>  <published_value>  (361) 
1.28

>  <document_year>  (361) 
2008

>  <target_pref_name>  (361) 
Dihydrofolate reductase

>  <assay_chembl_id>  (361) 
CHEMBL999460

>  <standard_relation>  (361) 
=

>  <assay_description>  (361) 
Inhibition of human DHFR assessed as rate of enzyme-dependent NADPH oxidation

>  <published_relation>  (361) 
=

>  <standard_value>  (361) 
1280

>  <qudt_units>  (361) 
http://www.openphacts.org/units/Nanomolar

>  <target_tax_id>  (361) 
9606

>  <bao_label>  (361) 
single protein format

>  <published_units>  (361) 
uM

>  <pchembl_value>  (361) 
5.89

>  <published_type>  (361) 
IC50

>  <activity_comment>  (361) 
None

$$$$

     RDKit          

 24 25  0  0  0  0  0  0  0  0999 V2000
    0.0000    0.0000    0.0000 C   0  0  0  0  0  0  0  0  0  0  0  0
    0.0000    0.0000    0.0000 C   0  0  0  0  0  0  0  0  0  0  0  0
    0.0000    0.0000    0.0000 C   0  0  0  0  0  0  0  0  0  0  0  0
    0.0000    0.0000    0.0000 C   0  0  0  0  0  0  0  0  0  0  0  0
    0.0000    0.0000    0.0000 N   0  0  0  0  0  0  0  0  0  0  0  0
    0.0000    0.0000    0.0000 C   0  0  0  0  0  0  0  0  0  0  0  0
    0.0000    0.0000    0.0000 N   0  0  0  0  0  0  0  0  0  0  0  0
    0.0000    0.0000    0.0000 N   0  0  0  0  0  0  0  0  0  0  0  0
    0.0000    0.0000    0.0000 C   0  0  0  0  0  0  0  0  0  0  0  0
    0.0000    0.0000    0.0000 N   0  0  0  0  0  0  0  0  0  0  0  0
    0.0000    0.0000    0.0000 C   0  0  0  0  0  0  0  0  0  0  0  0
    0.0000    0.0000    0.0000 C   0  0  0  0  0  0  0  0  0  0  0  0
    0.0000    0.0000    0.0000 C   0  0  0  0  0  0  0  0  0  0  0  0
    0.0000    0.0000    0.0000 C   0  0  0  0  0  0  0  0  0  0  0  0
    0.0000    0.0000    0.0000 C   0  0  0  0  0  0  0  0  0  0  0  0
    0.0000    0.0000    0.0000 C   0  0  0  0  0  0  0  0  0  0  0  0
    0.0000    0.0000    0.0000 C   0  0  0  0  0  0  0  0  0  0  0  0
    0.0000    0.0000    0.0000 O   0  0  0  0  0  0  0  0  0  0  0  0
    0.0000    0.0000    0.0000 C   0  0  0  0  0  0  0  0  0  0  0  0
    0.0000    0.0000    0.0000 C   0  0  0  0  0  0  0  0  0  0  0  0
    0.0000    0.0000    0.0000 C   0  0  0  0  0  0  0  0  0  0  0  0
    0.0000    0.0000    0.0000 C   0  0  0  0  0  0  0  0  0  0  0  0
    0.0000    0.0000    0.0000 O   0  0  0  0  0  0  0  0  0  0  0  0
    0.0000    0.0000    0.0000 C   0  0  0  0  0  0  0  0  0  0  0  0
  1  2  1  0
  2  3  1  0
  3  4  1  0
  4  5  2  0
  5  6  1  0
  6  7  1  0
  6  8  2  0
  8  9  1  0
  9 10  1  0
  9 11  2  0
 11 12  1  0
 12 13  3  0
 13 14  1  0
 14 15  1  0
 15 16  2  0
 16 17  1  0
 17 18  1  0
 18 19  1  0
 17 20  2  0
 20 21  1  0
 21 22  2  0
 22 23  1  0
 23 24  1  0
 11  4  1  0
 22 15  1  0
M  END
>  <pIC50>  (362) 
5.93

>  <ChEMBL_ID>  (362) 
CHEMBL485962

>  <document_journal>  (362) 
J. Med. Chem.

>  <bao_endpoint>  (362) 
BAO_0000190

>  <potential_duplicate>  (362) 
False

>  <uo_units>  (362) 
UO_0000065

>  <canonical_smiles>  (362) 
CCCc1nc(N)nc(N)c1C#CCc2cc(OC)ccc2OC

>  <parent_molecule_chembl_id>  (362) 
CHEMBL485962

>  <assay_type>  (362) 
B

>  <src_id>  (362) 
1

>  <ligand_efficiency>  (362) 
{u'le': u'0.34', u'bei': u'18.16', u'sei': u'6.16', u'lle': u'2.37'}

>  <standard_flag>  (362) 
True

>  <molecule_chembl_id>  (362) 
CHEMBL485962

>  <target_organism>  (362) 
Homo sapiens

>  <standard_units>  (362) 
nM

>  <record_id>  (362) 
803323

>  <document_chembl_id>  (362) 
CHEMBL1140220

>  <bao_format>  (362) 
BAO_0000357

>  <data_validity_description>  (362) 
None

>  <activity_id>  (362) 
2383080

>  <standard_type>  (362) 
IC50

>  <target_chembl_id>  (362) 
CHEMBL202

>  <data_validity_comment>  (362) 
None

>  <published_value>  (362) 
1.18

>  <document_year>  (362) 
2008

>  <target_pref_name>  (362) 
Dihydrofolate reductase

>  <assay_chembl_id>  (362) 
CHEMBL999460

>  <standard_relation>  (362) 
=

>  <assay_description>  (362) 
Inhibition of human DHFR assessed as rate of enzyme-dependent NADPH oxidation

>  <published_relation>  (362) 
=

>  <standard_value>  (362) 
1180

>  <qudt_units>  (362) 
http://www.openphacts.org/units/Nanomolar

>  <target_tax_id>  (362) 
9606

>  <bao_label>  (362) 
single protein format

>  <published_units>  (362) 
uM

>  <pchembl_value>  (362) 
5.93

>  <published_type>  (362) 
IC50

>  <activity_comment>  (362) 
None

$$$$

     RDKit          

 25 26  0  0  0  0  0  0  0  0999 V2000
    0.0000    0.0000    0.0000 C   0  0  0  0  0  0  0  0  0  0  0  0
    0.0000    0.0000    0.0000 C   0  0  0  0  0  0  0  0  0  0  0  0
    0.0000    0.0000    0.0000 C   0  0  0  0  0  0  0  0  0  0  0  0
    0.0000    0.0000    0.0000 N   0  0  0  0  0  0  0  0  0  0  0  0
    0.0000    0.0000    0.0000 C   0  0  0  0  0  0  0  0  0  0  0  0
    0.0000    0.0000    0.0000 N   0  0  0  0  0  0  0  0  0  0  0  0
    0.0000    0.0000    0.0000 N   0  0  0  0  0  0  0  0  0  0  0  0
    0.0000    0.0000    0.0000 C   0  0  0  0  0  0  0  0  0  0  0  0
    0.0000    0.0000    0.0000 N   0  0  0  0  0  0  0  0  0  0  0  0
    0.0000    0.0000    0.0000 C   0  0  0  0  0  0  0  0  0  0  0  0
    0.0000    0.0000    0.0000 C   0  0  0  0  0  0  0  0  0  0  0  0
    0.0000    0.0000    0.0000 C   0  0  0  0  0  0  0  0  0  0  0  0
    0.0000    0.0000    0.0000 C   0  0  0  0  0  0  0  0  0  0  0  0
    0.0000    0.0000    0.0000 C   0  0  0  0  0  0  0  0  0  0  0  0
    0.0000    0.0000    0.0000 C   0  0  0  0  0  0  0  0  0  0  0  0
    0.0000    0.0000    0.0000 C   0  0  0  0  0  0  0  0  0  0  0  0
    0.0000    0.0000    0.0000 O   0  0  0  0  0  0  0  0  0  0  0  0
    0.0000    0.0000    0.0000 C   0  0  0  0  0  0  0  0  0  0  0  0
    0.0000    0.0000    0.0000 C   0  0  0  0  0  0  0  0  0  0  0  0
    0.0000    0.0000    0.0000 O   0  0  0  0  0  0  0  0  0  0  0  0
    0.0000    0.0000    0.0000 C   0  0  0  0  0  0  0  0  0  0  0  0
    0.0000    0.0000    0.0000 C   0  0  0  0  0  0  0  0  0  0  0  0
    0.0000    0.0000    0.0000 O   0  0  0  0  0  0  0  0  0  0  0  0
    0.0000    0.0000    0.0000 C   0  0  0  0  0  0  0  0  0  0  0  0
    0.0000    0.0000    0.0000 C   0  0  0  0  0  0  0  0  0  0  0  0
  1  2  1  0
  2  3  1  0
  3  4  2  0
  4  5  1  0
  5  6  1  0
  5  7  2  0
  7  8  1  0
  8  9  1  0
  8 10  2  0
 10 11  1  0
 11 12  3  0
 12 13  1  0
 13 14  1  0
 14 15  2  0
 15 16  1  0
 16 17  1  0
 17 18  1  0
 16 19  2  0
 19 20  1  0
 20 21  1  0
 19 22  1  0
 22 23  1  0
 23 24  1  0
 22 25  2  0
 10  3  1  0
 25 14  1  0
M  END
>  <pIC50>  (363) 
7.24

>  <ChEMBL_ID>  (363) 
CHEMBL485959

>  <document_journal>  (363) 
J. Med. Chem.

>  <bao_endpoint>  (363) 
BAO_0000190

>  <potential_duplicate>  (363) 
False

>  <uo_units>  (363) 
UO_0000065

>  <canonical_smiles>  (363) 
CCc1nc(N)nc(N)c1C#CCc2cc(OC)c(OC)c(OC)c2

>  <parent_molecule_chembl_id>  (363) 
CHEMBL485959

>  <assay_type>  (363) 
B

>  <src_id>  (363) 
1

>  <ligand_efficiency>  (363) 
{u'le': u'0.4', u'bei': u'21.16', u'sei': u'6.87', u'lle': u'4.16'}

>  <standard_flag>  (363) 
True

>  <molecule_chembl_id>  (363) 
CHEMBL485959

>  <target_organism>  (363) 
Homo sapiens

>  <standard_units>  (363) 
nM

>  <record_id>  (363) 
803324

>  <document_chembl_id>  (363) 
CHEMBL1140220

>  <bao_format>  (363) 
BAO_0000357

>  <data_validity_description>  (363) 
None

>  <activity_id>  (363) 
2383081

>  <standard_type>  (363) 
IC50

>  <target_chembl_id>  (363) 
CHEMBL202

>  <data_validity_comment>  (363) 
None

>  <published_value>  (363) 
0.057

>  <document_year>  (363) 
2008

>  <target_pref_name>  (363) 
Dihydrofolate reductase

>  <assay_chembl_id>  (363) 
CHEMBL999460

>  <standard_relation>  (363) 
=

>  <assay_description>  (363) 
Inhibition of human DHFR assessed as rate of enzyme-dependent NADPH oxidation

>  <published_relation>  (363) 
=

>  <standard_value>  (363) 
57

>  <qudt_units>  (363) 
http://www.openphacts.org/units/Nanomolar

>  <target_tax_id>  (363) 
9606

>  <bao_label>  (363) 
single protein format

>  <published_units>  (363) 
uM

>  <pchembl_value>  (363) 
7.24

>  <published_type>  (363) 
IC50

>  <activity_comment>  (363) 
None

$$$$

     RDKit          

 23 24  0  0  0  0  0  0  0  0999 V2000
    0.0000    0.0000    0.0000 C   0  0  0  0  0  0  0  0  0  0  0  0
    0.0000    0.0000    0.0000 C   0  0  0  0  0  0  0  0  0  0  0  0
    0.0000    0.0000    0.0000 C   0  0  0  0  0  0  0  0  0  0  0  0
    0.0000    0.0000    0.0000 N   0  0  0  0  0  0  0  0  0  0  0  0
    0.0000    0.0000    0.0000 C   0  0  0  0  0  0  0  0  0  0  0  0
    0.0000    0.0000    0.0000 N   0  0  0  0  0  0  0  0  0  0  0  0
    0.0000    0.0000    0.0000 N   0  0  0  0  0  0  0  0  0  0  0  0
    0.0000    0.0000    0.0000 C   0  0  0  0  0  0  0  0  0  0  0  0
    0.0000    0.0000    0.0000 N   0  0  0  0  0  0  0  0  0  0  0  0
    0.0000    0.0000    0.0000 C   0  0  0  0  0  0  0  0  0  0  0  0
    0.0000    0.0000    0.0000 C   0  0  0  0  0  0  0  0  0  0  0  0
    0.0000    0.0000    0.0000 C   0  0  0  0  0  0  0  0  0  0  0  0
    0.0000    0.0000    0.0000 C   0  0  0  0  0  0  0  0  0  0  0  0
    0.0000    0.0000    0.0000 C   0  0  0  0  0  0  0  0  0  0  0  0
    0.0000    0.0000    0.0000 C   0  0  0  0  0  0  0  0  0  0  0  0
    0.0000    0.0000    0.0000 C   0  0  0  0  0  0  0  0  0  0  0  0
    0.0000    0.0000    0.0000 C   0  0  0  0  0  0  0  0  0  0  0  0
    0.0000    0.0000    0.0000 C   0  0  0  0  0  0  0  0  0  0  0  0
    0.0000    0.0000    0.0000 O   0  0  0  0  0  0  0  0  0  0  0  0
    0.0000    0.0000    0.0000 C   0  0  0  0  0  0  0  0  0  0  0  0
    0.0000    0.0000    0.0000 C   0  0  0  0  0  0  0  0  0  0  0  0
    0.0000    0.0000    0.0000 O   0  0  0  0  0  0  0  0  0  0  0  0
    0.0000    0.0000    0.0000 C   0  0  0  0  0  0  0  0  0  0  0  0
  1  2  1  0
  2  3  1  0
  3  4  2  0
  4  5  1  0
  5  6  1  0
  5  7  2  0
  7  8  1  0
  8  9  1  0
  8 10  2  0
 10 11  1  0
 11 12  3  0
 12 13  1  0
 13 14  1  0
 14 15  2  0
 15 16  1  0
 16 17  2  0
 17 18  1  0
 18 19  1  0
 19 20  1  0
 18 21  2  0
 21 22  1  0
 22 23  1  0
 10  3  1  0
 21 14  1  0
M  END
>  <pIC50>  (364) 
6.89

>  <ChEMBL_ID>  (364) 
CHEMBL486570

>  <document_journal>  (364) 
J. Med. Chem.

>  <bao_endpoint>  (364) 
BAO_0000190

>  <potential_duplicate>  (364) 
False

>  <uo_units>  (364) 
UO_0000065

>  <canonical_smiles>  (364) 
CCc1nc(N)nc(N)c1C#CCc2cccc(OC)c2OC

>  <parent_molecule_chembl_id>  (364) 
CHEMBL486570

>  <assay_type>  (364) 
B

>  <src_id>  (364) 
1

>  <ligand_efficiency>  (364) 
{u'le': u'0.41', u'bei': u'22.04', u'sei': u'7.15', u'lle': u'3.79'}

>  <standard_flag>  (364) 
True

>  <molecule_chembl_id>  (364) 
CHEMBL486570

>  <target_organism>  (364) 
Homo sapiens

>  <standard_units>  (364) 
nM

>  <record_id>  (364) 
803413

>  <document_chembl_id>  (364) 
CHEMBL1140220

>  <bao_format>  (364) 
BAO_0000357

>  <data_validity_description>  (364) 
None

>  <activity_id>  (364) 
2383082

>  <standard_type>  (364) 
IC50

>  <target_chembl_id>  (364) 
CHEMBL202

>  <data_validity_comment>  (364) 
None

>  <published_value>  (364) 
0.13

>  <document_year>  (364) 
2008

>  <target_pref_name>  (364) 
Dihydrofolate reductase

>  <assay_chembl_id>  (364) 
CHEMBL999460

>  <standard_relation>  (364) 
=

>  <assay_description>  (364) 
Inhibition of human DHFR assessed as rate of enzyme-dependent NADPH oxidation

>  <published_relation>  (364) 
=

>  <standard_value>  (364) 
130

>  <qudt_units>  (364) 
http://www.openphacts.org/units/Nanomolar

>  <target_tax_id>  (364) 
9606

>  <bao_label>  (364) 
single protein format

>  <published_units>  (364) 
uM

>  <pchembl_value>  (364) 
6.89

>  <published_type>  (364) 
IC50

>  <activity_comment>  (364) 
None

$$$$

     RDKit          

 19 20  0  0  0  0  0  0  0  0999 V2000
    0.0000    0.0000    0.0000 C   0  0  0  0  0  0  0  0  0  0  0  0
    0.0000    0.0000    0.0000 C   0  0  0  0  0  0  0  0  0  0  0  0
    0.0000    0.0000    0.0000 C   0  0  0  0  0  0  0  0  0  0  0  0
    0.0000    0.0000    0.0000 N   0  0  0  0  0  0  0  0  0  0  0  0
    0.0000    0.0000    0.0000 C   0  0  0  0  0  0  0  0  0  0  0  0
    0.0000    0.0000    0.0000 N   0  0  0  0  0  0  0  0  0  0  0  0
    0.0000    0.0000    0.0000 N   0  0  0  0  0  0  0  0  0  0  0  0
    0.0000    0.0000    0.0000 C   0  0  0  0  0  0  0  0  0  0  0  0
    0.0000    0.0000    0.0000 N   0  0  0  0  0  0  0  0  0  0  0  0
    0.0000    0.0000    0.0000 C   0  0  0  0  0  0  0  0  0  0  0  0
    0.0000    0.0000    0.0000 C   0  0  0  0  0  0  0  0  0  0  0  0
    0.0000    0.0000    0.0000 C   0  0  0  0  0  0  0  0  0  0  0  0
    0.0000    0.0000    0.0000 C   0  0  0  0  0  0  0  0  0  0  0  0
    0.0000    0.0000    0.0000 C   0  0  0  0  0  0  0  0  0  0  0  0
    0.0000    0.0000    0.0000 C   0  0  0  0  0  0  0  0  0  0  0  0
    0.0000    0.0000    0.0000 C   0  0  0  0  0  0  0  0  0  0  0  0
    0.0000    0.0000    0.0000 C   0  0  0  0  0  0  0  0  0  0  0  0
    0.0000    0.0000    0.0000 C   0  0  0  0  0  0  0  0  0  0  0  0
    0.0000    0.0000    0.0000 C   0  0  0  0  0  0  0  0  0  0  0  0
  1  2  1  0
  2  3  1  0
  3  4  2  0
  4  5  1  0
  5  6  1  0
  5  7  2  0
  7  8  1  0
  8  9  1  0
  8 10  2  0
 10 11  1  0
 11 12  3  0
 12 13  1  0
 13 14  1  0
 14 15  2  0
 15 16  1  0
 16 17  2  0
 17 18  1  0
 18 19  2  0
 10  3  1  0
 19 14  1  0
M  END
>  <pIC50>  (365) 
6.44

>  <ChEMBL_ID>  (365) 
CHEMBL501263

>  <document_journal>  (365) 
J. Med. Chem.

>  <bao_endpoint>  (365) 
BAO_0000190

>  <potential_duplicate>  (365) 
False

>  <uo_units>  (365) 
UO_0000065

>  <canonical_smiles>  (365) 
CCc1nc(N)nc(N)c1C#CCc2ccccc2

>  <parent_molecule_chembl_id>  (365) 
CHEMBL501263

>  <assay_type>  (365) 
B

>  <src_id>  (365) 
1

>  <ligand_efficiency>  (365) 
{u'le': u'0.46', u'bei': u'25.54', u'sei': u'8.28', u'lle': u'3.31'}

>  <standard_flag>  (365) 
True

>  <molecule_chembl_id>  (365) 
CHEMBL501263

>  <target_organism>  (365) 
Homo sapiens

>  <standard_units>  (365) 
nM

>  <record_id>  (365) 
803414

>  <document_chembl_id>  (365) 
CHEMBL1140220

>  <bao_format>  (365) 
BAO_0000357

>  <data_validity_description>  (365) 
None

>  <activity_id>  (365) 
2384158

>  <standard_type>  (365) 
IC50

>  <target_chembl_id>  (365) 
CHEMBL202

>  <data_validity_comment>  (365) 
None

>  <published_value>  (365) 
0.36

>  <document_year>  (365) 
2008

>  <target_pref_name>  (365) 
Dihydrofolate reductase

>  <assay_chembl_id>  (365) 
CHEMBL999460

>  <standard_relation>  (365) 
=

>  <assay_description>  (365) 
Inhibition of human DHFR assessed as rate of enzyme-dependent NADPH oxidation

>  <published_relation>  (365) 
=

>  <standard_value>  (365) 
360

>  <qudt_units>  (365) 
http://www.openphacts.org/units/Nanomolar

>  <target_tax_id>  (365) 
9606

>  <bao_label>  (365) 
single protein format

>  <published_units>  (365) 
uM

>  <pchembl_value>  (365) 
6.44

>  <published_type>  (365) 
IC50

>  <activity_comment>  (365) 
None

$$$$

     RDKit          

 32 34  0  0  0  0  0  0  0  0999 V2000
    0.0000    0.0000    0.0000 N   0  0  0  0  0  0  0  0  0  0  0  0
    0.0000    0.0000    0.0000 C   0  0  0  0  0  0  0  0  0  0  0  0
    0.0000    0.0000    0.0000 N   0  0  0  0  0  0  0  0  0  0  0  0
    0.0000    0.0000    0.0000 C   0  0  0  0  0  0  0  0  0  0  0  0
    0.0000    0.0000    0.0000 N   0  0  0  0  0  0  0  0  0  0  0  0
    0.0000    0.0000    0.0000 C   0  0  0  0  0  0  0  0  0  0  0  0
    0.0000    0.0000    0.0000 N   0  0  0  0  0  0  0  0  0  0  0  0
    0.0000    0.0000    0.0000 C   0  0  0  0  0  0  0  0  0  0  0  0
    0.0000    0.0000    0.0000 C   0  0  0  0  0  0  0  0  0  0  0  0
    0.0000    0.0000    0.0000 N   0  0  0  0  0  0  0  0  0  0  0  0
    0.0000    0.0000    0.0000 C   0  0  0  0  0  0  0  0  0  0  0  0
    0.0000    0.0000    0.0000 C   0  0  0  0  0  0  0  0  0  0  0  0
    0.0000    0.0000    0.0000 C   0  0  0  0  0  0  0  0  0  0  0  0
    0.0000    0.0000    0.0000 C   0  0  0  0  0  0  0  0  0  0  0  0
    0.0000    0.0000    0.0000 C   0  0  0  0  0  0  0  0  0  0  0  0
    0.0000    0.0000    0.0000 C   0  0  0  0  0  0  0  0  0  0  0  0
    0.0000    0.0000    0.0000 C   0  0  0  0  0  0  0  0  0  0  0  0
    0.0000    0.0000    0.0000 O   0  0  0  0  0  0  0  0  0  0  0  0
    0.0000    0.0000    0.0000 N   0  0  0  0  0  0  0  0  0  0  0  0
    0.0000    0.0000    0.0000 C   0  0  0  0  0  0  0  0  0  0  0  0
    0.0000    0.0000    0.0000 C   0  0  0  0  0  0  0  0  0  0  0  0
    0.0000    0.0000    0.0000 C   0  0  0  0  0  0  0  0  0  0  0  0
    0.0000    0.0000    0.0000 C   0  0  0  0  0  0  0  0  0  0  0  0
    0.0000    0.0000    0.0000 O   0  0  0  0  0  0  0  0  0  0  0  0
    0.0000    0.0000    0.0000 O   0  0  0  0  0  0  0  0  0  0  0  0
    0.0000    0.0000    0.0000 C   0  0  0  0  0  0  0  0  0  0  0  0
    0.0000    0.0000    0.0000 O   0  0  0  0  0  0  0  0  0  0  0  0
    0.0000    0.0000    0.0000 O   0  0  0  0  0  0  0  0  0  0  0  0
    0.0000    0.0000    0.0000 C   0  0  0  0  0  0  0  0  0  0  0  0
    0.0000    0.0000    0.0000 C   0  0  0  0  0  0  0  0  0  0  0  0
    0.0000    0.0000    0.0000 C   0  0  0  0  0  0  0  0  0  0  0  0
    0.0000    0.0000    0.0000 N   0  0  0  0  0  0  0  0  0  0  0  0
  1  2  1  0
  2  3  2  0
  3  4  1  0
  4  5  1  0
  4  6  2  0
  6  7  1  0
  7  8  1  0
  8  9  1  0
  9 10  1  0
 10 11  1  0
 11 12  2  0
 12 13  1  0
 13 14  2  0
 14 15  1  0
 15 16  2  0
 14 17  1  0
 17 18  2  0
 17 19  1  0
 19 20  1  0
 20 21  1  0
 21 22  1  0
 22 23  1  0
 23 24  2  0
 23 25  1  0
 20 26  1  0
 26 27  2  0
 26 28  1  0
  8 29  1  0
 29 30  1  0
 30 31  1  0
 31 32  2  0
 32  2  1  0
 31  6  1  0
 16 11  1  0
M  END
>  <pIC50>  (366) 
6.25

>  <ChEMBL_ID>  (366) 
CHEMBL476400

>  <document_journal>  (366) 
Eur. J. Med. Chem.

>  <bao_endpoint>  (366) 
BAO_0000190

>  <potential_duplicate>  (366) 
False

>  <uo_units>  (366) 
UO_0000065

>  <canonical_smiles>  (366) 
Nc1nc(N)c2NC(CNc3ccc(cc3)C(=O)NC(CCC(=O)O)C(=O)O)CCc2n1

>  <parent_molecule_chembl_id>  (366) 
CHEMBL476400

>  <assay_type>  (366) 
B

>  <src_id>  (366) 
1

>  <ligand_efficiency>  (366) 
{u'le': u'0.27', u'bei': u'14.1', u'sei': u'3.04', u'lle': u'5.92'}

>  <standard_flag>  (366) 
True

>  <molecule_chembl_id>  (366) 
CHEMBL476400

>  <target_organism>  (366) 
Homo sapiens

>  <standard_units>  (366) 
nM

>  <record_id>  (366) 
780537

>  <document_chembl_id>  (366) 
CHEMBL1153868

>  <bao_format>  (366) 
BAO_0000357

>  <data_validity_description>  (366) 
None

>  <activity_id>  (366) 
2405014

>  <standard_type>  (366) 
IC50

>  <target_chembl_id>  (366) 
CHEMBL202

>  <data_validity_comment>  (366) 
None

>  <published_value>  (366) 
0.56

>  <document_year>  (366) 
2009

>  <target_pref_name>  (366) 
Dihydrofolate reductase

>  <assay_chembl_id>  (366) 
CHEMBL957672

>  <standard_relation>  (366) 
=

>  <assay_description>  (366) 
Inhibition of human recombinant DHFR by spectrophotometry

>  <published_relation>  (366) 
=

>  <standard_value>  (366) 
560

>  <qudt_units>  (366) 
http://www.openphacts.org/units/Nanomolar

>  <target_tax_id>  (366) 
9606

>  <bao_label>  (366) 
single protein format

>  <published_units>  (366) 
uM

>  <pchembl_value>  (366) 
6.25

>  <published_type>  (366) 
IC50

>  <activity_comment>  (366) 
None

$$$$

     RDKit          

 35 37  0  0  0  0  0  0  0  0999 V2000
    0.0000    0.0000    0.0000 N   0  0  0  0  0  0  0  0  0  0  0  0
    0.0000    0.0000    0.0000 C   0  0  0  0  0  0  0  0  0  0  0  0
    0.0000    0.0000    0.0000 N   0  0  0  0  0  0  0  0  0  0  0  0
    0.0000    0.0000    0.0000 C   0  0  0  0  0  0  0  0  0  0  0  0
    0.0000    0.0000    0.0000 N   0  0  0  0  0  0  0  0  0  0  0  0
    0.0000    0.0000    0.0000 C   0  0  0  0  0  0  0  0  0  0  0  0
    0.0000    0.0000    0.0000 N   0  0  0  0  0  0  0  0  0  0  0  0
    0.0000    0.0000    0.0000 C   0  0  0  0  0  0  0  0  0  0  0  0
    0.0000    0.0000    0.0000 C   0  0  0  0  0  0  0  0  0  0  0  0
    0.0000    0.0000    0.0000 C   0  0  0  0  0  0  0  0  0  0  0  0
    0.0000    0.0000    0.0000 C   0  0  0  0  0  0  0  0  0  0  0  0
    0.0000    0.0000    0.0000 C   0  0  0  0  0  0  0  0  0  0  0  0
    0.0000    0.0000    0.0000 N   0  0  0  0  0  0  0  0  0  0  0  0
    0.0000    0.0000    0.0000 C   0  0  0  0  0  0  0  0  0  0  0  0
    0.0000    0.0000    0.0000 C   0  0  0  0  0  0  0  0  0  0  0  0
    0.0000    0.0000    0.0000 C   0  0  0  0  0  0  0  0  0  0  0  0
    0.0000    0.0000    0.0000 C   0  0  0  0  0  0  0  0  0  0  0  0
    0.0000    0.0000    0.0000 C   0  0  0  0  0  0  0  0  0  0  0  0
    0.0000    0.0000    0.0000 C   0  0  0  0  0  0  0  0  0  0  0  0
    0.0000    0.0000    0.0000 C   0  0  0  0  0  0  0  0  0  0  0  0
    0.0000    0.0000    0.0000 O   0  0  0  0  0  0  0  0  0  0  0  0
    0.0000    0.0000    0.0000 N   0  0  0  0  0  0  0  0  0  0  0  0
    0.0000    0.0000    0.0000 C   0  0  0  0  0  0  0  0  0  0  0  0
    0.0000    0.0000    0.0000 C   0  0  0  0  0  0  0  0  0  0  0  0
    0.0000    0.0000    0.0000 C   0  0  0  0  0  0  0  0  0  0  0  0
    0.0000    0.0000    0.0000 C   0  0  0  0  0  0  0  0  0  0  0  0
    0.0000    0.0000    0.0000 O   0  0  0  0  0  0  0  0  0  0  0  0
    0.0000    0.0000    0.0000 O   0  0  0  0  0  0  0  0  0  0  0  0
    0.0000    0.0000    0.0000 C   0  0  0  0  0  0  0  0  0  0  0  0
    0.0000    0.0000    0.0000 O   0  0  0  0  0  0  0  0  0  0  0  0
    0.0000    0.0000    0.0000 O   0  0  0  0  0  0  0  0  0  0  0  0
    0.0000    0.0000    0.0000 C   0  0  0  0  0  0  0  0  0  0  0  0
    0.0000    0.0000    0.0000 C   0  0  0  0  0  0  0  0  0  0  0  0
    0.0000    0.0000    0.0000 C   0  0  0  0  0  0  0  0  0  0  0  0
    0.0000    0.0000    0.0000 N   0  0  0  0  0  0  0  0  0  0  0  0
  1  2  1  0
  2  3  2  0
  3  4  1  0
  4  5  1  0
  4  6  2  0
  6  7  1  0
  7  8  1  0
  8  9  1  0
  9 10  2  0
  7 11  1  0
 11 12  1  0
 12 13  1  0
 13 14  1  0
 14 15  2  0
 15 16  1  0
 16 17  2  0
 17 18  1  0
 18 19  2  0
 17 20  1  0
 20 21  2  0
 20 22  1  0
 22 23  1  0
 23 24  1  0
 24 25  1  0
 25 26  1  0
 26 27  2  0
 26 28  1  0
 23 29  1  0
 29 30  2  0
 29 31  1  0
 11 32  1  0
 32 33  1  0
 33 34  1  0
 34 35  2  0
 35  2  1  0
 34  6  1  0
 19 14  1  0
M  END
>  <pIC50>  (367) 
5.85

>  <ChEMBL_ID>  (367) 
CHEMBL476401

>  <document_journal>  (367) 
Eur. J. Med. Chem.

>  <bao_endpoint>  (367) 
BAO_0000190

>  <potential_duplicate>  (367) 
False

>  <uo_units>  (367) 
UO_0000065

>  <canonical_smiles>  (367) 
Nc1nc(N)c2N(CC=C)C(CNc3ccc(cc3)C(=O)NC(CCC(=O)O)C(=O)O)CCc2n1

>  <parent_molecule_chembl_id>  (367) 
CHEMBL476401

>  <assay_type>  (367) 
B

>  <src_id>  (367) 
1

>  <ligand_efficiency>  (367) 
{u'le': u'0.23', u'bei': u'12.1', u'sei': u'2.97', u'lle': u'4.55'}

>  <standard_flag>  (367) 
True

>  <molecule_chembl_id>  (367) 
CHEMBL476401

>  <target_organism>  (367) 
Homo sapiens

>  <standard_units>  (367) 
nM

>  <record_id>  (367) 
780538

>  <document_chembl_id>  (367) 
CHEMBL1153868

>  <bao_format>  (367) 
BAO_0000357

>  <data_validity_description>  (367) 
None

>  <activity_id>  (367) 
2405015

>  <standard_type>  (367) 
IC50

>  <target_chembl_id>  (367) 
CHEMBL202

>  <data_validity_comment>  (367) 
None

>  <published_value>  (367) 
1.408

>  <document_year>  (367) 
2009

>  <target_pref_name>  (367) 
Dihydrofolate reductase

>  <assay_chembl_id>  (367) 
CHEMBL957672

>  <standard_relation>  (367) 
=

>  <assay_description>  (367) 
Inhibition of human recombinant DHFR by spectrophotometry

>  <published_relation>  (367) 
=

>  <standard_value>  (367) 
1408

>  <qudt_units>  (367) 
http://www.openphacts.org/units/Nanomolar

>  <target_tax_id>  (367) 
9606

>  <bao_label>  (367) 
single protein format

>  <published_units>  (367) 
uM

>  <pchembl_value>  (367) 
5.85

>  <published_type>  (367) 
IC50

>  <activity_comment>  (367) 
None

$$$$

     RDKit          

 36 38  0  0  0  0  0  0  0  0999 V2000
    0.0000    0.0000    0.0000 N   0  0  0  0  0  0  0  0  0  0  0  0
    0.0000    0.0000    0.0000 C   0  0  0  0  0  0  0  0  0  0  0  0
    0.0000    0.0000    0.0000 N   0  0  0  0  0  0  0  0  0  0  0  0
    0.0000    0.0000    0.0000 C   0  0  0  0  0  0  0  0  0  0  0  0
    0.0000    0.0000    0.0000 N   0  0  0  0  0  0  0  0  0  0  0  0
    0.0000    0.0000    0.0000 C   0  0  0  0  0  0  0  0  0  0  0  0
    0.0000    0.0000    0.0000 N   0  0  0  0  0  0  0  0  0  0  0  0
    0.0000    0.0000    0.0000 C   0  0  0  0  0  0  0  0  0  0  0  0
    0.0000    0.0000    0.0000 C   0  0  0  0  0  0  0  0  0  0  0  0
    0.0000    0.0000    0.0000 C   0  0  0  0  0  0  0  0  0  0  0  0
    0.0000    0.0000    0.0000 C   0  0  0  0  0  0  0  0  0  0  0  0
    0.0000    0.0000    0.0000 C   0  0  0  0  0  0  0  0  0  0  0  0
    0.0000    0.0000    0.0000 N   0  0  0  0  0  0  0  0  0  0  0  0
    0.0000    0.0000    0.0000 C   0  0  0  0  0  0  0  0  0  0  0  0
    0.0000    0.0000    0.0000 C   0  0  0  0  0  0  0  0  0  0  0  0
    0.0000    0.0000    0.0000 C   0  0  0  0  0  0  0  0  0  0  0  0
    0.0000    0.0000    0.0000 C   0  0  0  0  0  0  0  0  0  0  0  0
    0.0000    0.0000    0.0000 C   0  0  0  0  0  0  0  0  0  0  0  0
    0.0000    0.0000    0.0000 C   0  0  0  0  0  0  0  0  0  0  0  0
    0.0000    0.0000    0.0000 Br  0  0  0  0  0  0  0  0  0  0  0  0
    0.0000    0.0000    0.0000 C   0  0  0  0  0  0  0  0  0  0  0  0
    0.0000    0.0000    0.0000 O   0  0  0  0  0  0  0  0  0  0  0  0
    0.0000    0.0000    0.0000 N   0  0  0  0  0  0  0  0  0  0  0  0
    0.0000    0.0000    0.0000 C   0  0  0  0  0  0  0  0  0  0  0  0
    0.0000    0.0000    0.0000 C   0  0  0  0  0  0  0  0  0  0  0  0
    0.0000    0.0000    0.0000 C   0  0  0  0  0  0  0  0  0  0  0  0
    0.0000    0.0000    0.0000 C   0  0  0  0  0  0  0  0  0  0  0  0
    0.0000    0.0000    0.0000 O   0  0  0  0  0  0  0  0  0  0  0  0
    0.0000    0.0000    0.0000 O   0  0  0  0  0  0  0  0  0  0  0  0
    0.0000    0.0000    0.0000 C   0  0  0  0  0  0  0  0  0  0  0  0
    0.0000    0.0000    0.0000 O   0  0  0  0  0  0  0  0  0  0  0  0
    0.0000    0.0000    0.0000 O   0  0  0  0  0  0  0  0  0  0  0  0
    0.0000    0.0000    0.0000 C   0  0  0  0  0  0  0  0  0  0  0  0
    0.0000    0.0000    0.0000 C   0  0  0  0  0  0  0  0  0  0  0  0
    0.0000    0.0000    0.0000 C   0  0  0  0  0  0  0  0  0  0  0  0
    0.0000    0.0000    0.0000 N   0  0  0  0  0  0  0  0  0  0  0  0
  1  2  1  0
  2  3  2  0
  3  4  1  0
  4  5  1  0
  4  6  2  0
  6  7  1  0
  7  8  1  0
  8  9  1  0
  9 10  2  0
  7 11  1  0
 11 12  1  0
 12 13  1  0
 13 14  1  0
 14 15  2  0
 15 16  1  0
 16 17  2  0
 17 18  1  0
 18 19  2  0
 19 20  1  0
 17 21  1  0
 21 22  2  0
 21 23  1  0
 23 24  1  0
 24 25  1  0
 25 26  1  0
 26 27  1  0
 27 28  2  0
 27 29  1  0
 24 30  1  0
 30 31  2  0
 30 32  1  0
 11 33  1  0
 33 34  1  0
 34 35  1  0
 35 36  2  0
 36  2  1  0
 35  6  1  0
 19 14  1  0
M  END
>  <pIC50>  (368) 
5.63

>  <ChEMBL_ID>  (368) 
CHEMBL477640

>  <document_journal>  (368) 
Eur. J. Med. Chem.

>  <bao_endpoint>  (368) 
BAO_0000190

>  <potential_duplicate>  (368) 
False

>  <uo_units>  (368) 
UO_0000065

>  <canonical_smiles>  (368) 
Nc1nc(N)c2N(CC=C)C(CNc3ccc(cc3Br)C(=O)NC(CCC(=O)O)C(=O)O)CCc2n1

>  <parent_molecule_chembl_id>  (368) 
CHEMBL477640

>  <assay_type>  (368) 
B

>  <src_id>  (368) 
1

>  <ligand_efficiency>  (368) 
{u'le': u'0.21', u'bei': u'10', u'sei': u'2.86', u'lle': u'3.58'}

>  <standard_flag>  (368) 
True

>  <molecule_chembl_id>  (368) 
CHEMBL477640

>  <target_organism>  (368) 
Homo sapiens

>  <standard_units>  (368) 
nM

>  <record_id>  (368) 
780609

>  <document_chembl_id>  (368) 
CHEMBL1153868

>  <bao_format>  (368) 
BAO_0000357

>  <data_validity_description>  (368) 
None

>  <activity_id>  (368) 
2405016

>  <standard_type>  (368) 
IC50

>  <target_chembl_id>  (368) 
CHEMBL202

>  <data_validity_comment>  (368) 
None

>  <published_value>  (368) 
2.37

>  <document_year>  (368) 
2009

>  <target_pref_name>  (368) 
Dihydrofolate reductase

>  <assay_chembl_id>  (368) 
CHEMBL957672

>  <standard_relation>  (368) 
=

>  <assay_description>  (368) 
Inhibition of human recombinant DHFR by spectrophotometry

>  <published_relation>  (368) 
=

>  <standard_value>  (368) 
2370

>  <qudt_units>  (368) 
http://www.openphacts.org/units/Nanomolar

>  <target_tax_id>  (368) 
9606

>  <bao_label>  (368) 
single protein format

>  <published_units>  (368) 
uM

>  <pchembl_value>  (368) 
5.63

>  <published_type>  (368) 
IC50

>  <activity_comment>  (368) 
None

$$$$

     RDKit          

 38 40  0  0  0  0  0  0  0  0999 V2000
    0.0000    0.0000    0.0000 N   0  0  0  0  0  0  0  0  0  0  0  0
    0.0000    0.0000    0.0000 C   0  0  0  0  0  0  0  0  0  0  0  0
    0.0000    0.0000    0.0000 N   0  0  0  0  0  0  0  0  0  0  0  0
    0.0000    0.0000    0.0000 C   0  0  0  0  0  0  0  0  0  0  0  0
    0.0000    0.0000    0.0000 N   0  0  0  0  0  0  0  0  0  0  0  0
    0.0000    0.0000    0.0000 C   0  0  0  0  0  0  0  0  0  0  0  0
    0.0000    0.0000    0.0000 N   0  0  0  0  0  0  0  0  0  0  0  0
    0.0000    0.0000    0.0000 C   0  0  0  0  0  0  0  0  0  0  0  0
    0.0000    0.0000    0.0000 C   0  0  0  0  0  0  0  0  0  0  0  0
    0.0000    0.0000    0.0000 Br  0  0  0  0  0  0  0  0  0  0  0  0
    0.0000    0.0000    0.0000 C   0  0  0  0  0  0  0  0  0  0  0  0
    0.0000    0.0000    0.0000 Br  0  0  0  0  0  0  0  0  0  0  0  0
    0.0000    0.0000    0.0000 C   0  0  0  0  0  0  0  0  0  0  0  0
    0.0000    0.0000    0.0000 C   0  0  0  0  0  0  0  0  0  0  0  0
    0.0000    0.0000    0.0000 N   0  0  0  0  0  0  0  0  0  0  0  0
    0.0000    0.0000    0.0000 C   0  0  0  0  0  0  0  0  0  0  0  0
    0.0000    0.0000    0.0000 C   0  0  0  0  0  0  0  0  0  0  0  0
    0.0000    0.0000    0.0000 C   0  0  0  0  0  0  0  0  0  0  0  0
    0.0000    0.0000    0.0000 C   0  0  0  0  0  0  0  0  0  0  0  0
    0.0000    0.0000    0.0000 C   0  0  0  0  0  0  0  0  0  0  0  0
    0.0000    0.0000    0.0000 C   0  0  0  0  0  0  0  0  0  0  0  0
    0.0000    0.0000    0.0000 Br  0  0  0  0  0  0  0  0  0  0  0  0
    0.0000    0.0000    0.0000 C   0  0  0  0  0  0  0  0  0  0  0  0
    0.0000    0.0000    0.0000 O   0  0  0  0  0  0  0  0  0  0  0  0
    0.0000    0.0000    0.0000 N   0  0  0  0  0  0  0  0  0  0  0  0
    0.0000    0.0000    0.0000 C   0  0  0  0  0  0  0  0  0  0  0  0
    0.0000    0.0000    0.0000 C   0  0  0  0  0  0  0  0  0  0  0  0
    0.0000    0.0000    0.0000 C   0  0  0  0  0  0  0  0  0  0  0  0
    0.0000    0.0000    0.0000 C   0  0  0  0  0  0  0  0  0  0  0  0
    0.0000    0.0000    0.0000 O   0  0  0  0  0  0  0  0  0  0  0  0
    0.0000    0.0000    0.0000 O   0  0  0  0  0  0  0  0  0  0  0  0
    0.0000    0.0000    0.0000 C   0  0  0  0  0  0  0  0  0  0  0  0
    0.0000    0.0000    0.0000 O   0  0  0  0  0  0  0  0  0  0  0  0
    0.0000    0.0000    0.0000 O   0  0  0  0  0  0  0  0  0  0  0  0
    0.0000    0.0000    0.0000 C   0  0  0  0  0  0  0  0  0  0  0  0
    0.0000    0.0000    0.0000 C   0  0  0  0  0  0  0  0  0  0  0  0
    0.0000    0.0000    0.0000 C   0  0  0  0  0  0  0  0  0  0  0  0
    0.0000    0.0000    0.0000 N   0  0  0  0  0  0  0  0  0  0  0  0
  1  2  1  0
  2  3  2  0
  3  4  1  0
  4  5  1  0
  4  6  2  0
  6  7  1  0
  7  8  1  0
  8  9  1  0
  9 10  1  0
  9 11  1  0
 11 12  1  0
  7 13  1  0
 13 14  1  0
 14 15  1  0
 15 16  1  0
 16 17  2  0
 17 18  1  0
 18 19  2  0
 19 20  1  0
 20 21  2  0
 21 22  1  0
 19 23  1  0
 23 24  2  0
 23 25  1  0
 25 26  1  0
 26 27  1  0
 27 28  1  0
 28 29  1  0
 29 30  2  0
 29 31  1  0
 26 32  1  0
 32 33  2  0
 32 34  1  0
 13 35  1  0
 35 36  1  0
 36 37  1  0
 37 38  2  0
 38  2  1  0
 37  6  1  0
 21 16  1  0
M  END
>  <pIC50>  (369) 
5.03

>  <ChEMBL_ID>  (369) 
CHEMBL477641

>  <document_journal>  (369) 
Eur. J. Med. Chem.

>  <bao_endpoint>  (369) 
BAO_0000190

>  <potential_duplicate>  (369) 
False

>  <uo_units>  (369) 
UO_0000065

>  <canonical_smiles>  (369) 
Nc1nc(N)c2N(CC(Br)CBr)C(CNc3ccc(cc3Br)C(=O)NC(CCC(=O)O)C(=O)O)CCc2n1

>  <parent_molecule_chembl_id>  (369) 
CHEMBL477641

>  <assay_type>  (369) 
B

>  <src_id>  (369) 
1

>  <ligand_efficiency>  (369) 
{u'le': u'0.18', u'bei': u'6.96', u'sei': u'2.56', u'lle': u'1.95'}

>  <standard_flag>  (369) 
True

>  <molecule_chembl_id>  (369) 
CHEMBL477641

>  <target_organism>  (369) 
Homo sapiens

>  <standard_units>  (369) 
nM

>  <record_id>  (369) 
780610

>  <document_chembl_id>  (369) 
CHEMBL1153868

>  <bao_format>  (369) 
BAO_0000357

>  <data_validity_description>  (369) 
None

>  <activity_id>  (369) 
2405017

>  <standard_type>  (369) 
IC50

>  <target_chembl_id>  (369) 
CHEMBL202

>  <data_validity_comment>  (369) 
None

>  <published_value>  (369) 
9.34

>  <document_year>  (369) 
2009

>  <target_pref_name>  (369) 
Dihydrofolate reductase

>  <assay_chembl_id>  (369) 
CHEMBL957672

>  <standard_relation>  (369) 
=

>  <assay_description>  (369) 
Inhibition of human recombinant DHFR by spectrophotometry

>  <published_relation>  (369) 
=

>  <standard_value>  (369) 
9340

>  <qudt_units>  (369) 
http://www.openphacts.org/units/Nanomolar

>  <target_tax_id>  (369) 
9606

>  <bao_label>  (369) 
single protein format

>  <published_units>  (369) 
uM

>  <pchembl_value>  (369) 
5.03

>  <published_type>  (369) 
IC50

>  <activity_comment>  (369) 
None

$$$$

     RDKit          

 38 40  0  0  0  0  0  0  0  0999 V2000
    0.0000    0.0000    0.0000 N   0  0  0  0  0  0  0  0  0  0  0  0
    0.0000    0.0000    0.0000 C   0  0  0  0  0  0  0  0  0  0  0  0
    0.0000    0.0000    0.0000 N   0  0  0  0  0  0  0  0  0  0  0  0
    0.0000    0.0000    0.0000 C   0  0  0  0  0  0  0  0  0  0  0  0
    0.0000    0.0000    0.0000 N   0  0  0  0  0  0  0  0  0  0  0  0
    0.0000    0.0000    0.0000 C   0  0  0  0  0  0  0  0  0  0  0  0
    0.0000    0.0000    0.0000 N   0  0  0  0  0  0  0  0  0  0  0  0
    0.0000    0.0000    0.0000 C   0  0  0  0  0  0  0  0  0  0  0  0
    0.0000    0.0000    0.0000 C   0  0  0  0  0  0  0  0  0  0  0  0
    0.0000    0.0000    0.0000 C   0  0  0  0  0  0  0  0  0  0  0  0
    0.0000    0.0000    0.0000 C   0  0  0  0  0  0  0  0  0  0  0  0
    0.0000    0.0000    0.0000 C   0  0  0  0  0  0  0  0  0  0  0  0
    0.0000    0.0000    0.0000 N   0  0  0  0  0  0  0  0  0  0  0  0
    0.0000    0.0000    0.0000 C   0  0  0  0  0  0  0  0  0  0  0  0
    0.0000    0.0000    0.0000 C   0  0  0  0  0  0  0  0  0  0  0  0
    0.0000    0.0000    0.0000 C   0  0  0  0  0  0  0  0  0  0  0  0
    0.0000    0.0000    0.0000 C   0  0  0  0  0  0  0  0  0  0  0  0
    0.0000    0.0000    0.0000 C   0  0  0  0  0  0  0  0  0  0  0  0
    0.0000    0.0000    0.0000 C   0  0  0  0  0  0  0  0  0  0  0  0
    0.0000    0.0000    0.0000 C   0  0  0  0  0  0  0  0  0  0  0  0
    0.0000    0.0000    0.0000 C   0  0  0  0  0  0  0  0  0  0  0  0
    0.0000    0.0000    0.0000 C   0  0  0  0  0  0  0  0  0  0  0  0
    0.0000    0.0000    0.0000 C   0  0  0  0  0  0  0  0  0  0  0  0
    0.0000    0.0000    0.0000 O   0  0  0  0  0  0  0  0  0  0  0  0
    0.0000    0.0000    0.0000 N   0  0  0  0  0  0  0  0  0  0  0  0
    0.0000    0.0000    0.0000 C   0  0  0  0  0  0  0  0  0  0  0  0
    0.0000    0.0000    0.0000 C   0  0  0  0  0  0  0  0  0  0  0  0
    0.0000    0.0000    0.0000 C   0  0  0  0  0  0  0  0  0  0  0  0
    0.0000    0.0000    0.0000 C   0  0  0  0  0  0  0  0  0  0  0  0
    0.0000    0.0000    0.0000 O   0  0  0  0  0  0  0  0  0  0  0  0
    0.0000    0.0000    0.0000 O   0  0  0  0  0  0  0  0  0  0  0  0
    0.0000    0.0000    0.0000 C   0  0  0  0  0  0  0  0  0  0  0  0
    0.0000    0.0000    0.0000 O   0  0  0  0  0  0  0  0  0  0  0  0
    0.0000    0.0000    0.0000 O   0  0  0  0  0  0  0  0  0  0  0  0
    0.0000    0.0000    0.0000 C   0  0  0  0  0  0  0  0  0  0  0  0
    0.0000    0.0000    0.0000 C   0  0  0  0  0  0  0  0  0  0  0  0
    0.0000    0.0000    0.0000 C   0  0  0  0  0  0  0  0  0  0  0  0
    0.0000    0.0000    0.0000 N   0  0  0  0  0  0  0  0  0  0  0  0
  1  2  1  0
  2  3  2  0
  3  4  1  0
  4  5  1  0
  4  6  2  0
  6  7  1  0
  7  8  1  0
  8  9  1  0
  9 10  2  0
  7 11  1  0
 11 12  1  0
 12 13  1  0
 13 14  1  0
 14 15  1  0
 15 16  2  0
 13 17  1  0
 17 18  2  0
 18 19  1  0
 19 20  2  0
 20 21  1  0
 21 22  2  0
 20 23  1  0
 23 24  2  0
 23 25  1  0
 25 26  1  0
 26 27  1  0
 27 28  1  0
 28 29  1  0
 29 30  2  0
 29 31  1  0
 26 32  1  0
 32 33  2  0
 32 34  1  0
 11 35  1  0
 35 36  1  0
 36 37  1  0
 37 38  2  0
 38  2  1  0
 37  6  1  0
 22 17  1  0
M  END
>  <pIC50>  (370) 
5.67

>  <ChEMBL_ID>  (370) 
CHEMBL477028

>  <document_journal>  (370) 
Eur. J. Med. Chem.

>  <bao_endpoint>  (370) 
BAO_0000190

>  <potential_duplicate>  (370) 
False

>  <uo_units>  (370) 
UO_0000065

>  <canonical_smiles>  (370) 
Nc1nc(N)c2N(CC=C)C(CN(CC=C)c3ccc(cc3)C(=O)NC(CCC(=O)O)C(=O)O)CCc2n1

>  <parent_molecule_chembl_id>  (370) 
CHEMBL477028

>  <assay_type>  (370) 
B

>  <src_id>  (370) 
1

>  <ligand_efficiency>  (370) 
{u'le': u'0.2', u'bei': u'10.82', u'sei': u'3.01', u'lle': u'3.4'}

>  <standard_flag>  (370) 
True

>  <molecule_chembl_id>  (370) 
CHEMBL477028

>  <target_organism>  (370) 
Homo sapiens

>  <standard_units>  (370) 
nM

>  <record_id>  (370) 
780611

>  <document_chembl_id>  (370) 
CHEMBL1153868

>  <bao_format>  (370) 
BAO_0000357

>  <data_validity_description>  (370) 
None

>  <activity_id>  (370) 
2405018

>  <standard_type>  (370) 
IC50

>  <target_chembl_id>  (370) 
CHEMBL202

>  <data_validity_comment>  (370) 
None

>  <published_value>  (370) 
2.15

>  <document_year>  (370) 
2009

>  <target_pref_name>  (370) 
Dihydrofolate reductase

>  <assay_chembl_id>  (370) 
CHEMBL957672

>  <standard_relation>  (370) 
=

>  <assay_description>  (370) 
Inhibition of human recombinant DHFR by spectrophotometry

>  <published_relation>  (370) 
=

>  <standard_value>  (370) 
2150

>  <qudt_units>  (370) 
http://www.openphacts.org/units/Nanomolar

>  <target_tax_id>  (370) 
9606

>  <bao_label>  (370) 
single protein format

>  <published_units>  (370) 
uM

>  <pchembl_value>  (370) 
5.67

>  <published_type>  (370) 
IC50

>  <activity_comment>  (370) 
None

$$$$

     RDKit          

 25 26  0  0  0  0  0  0  0  0999 V2000
    0.0000    0.0000    0.0000 C   0  0  0  0  0  0  0  0  0  0  0  0
    0.0000    0.0000    0.0000 O   0  0  0  0  0  0  0  0  0  0  0  0
    0.0000    0.0000    0.0000 C   0  0  0  0  0  0  0  0  0  0  0  0
    0.0000    0.0000    0.0000 C   0  0  0  0  0  0  0  0  0  0  0  0
    0.0000    0.0000    0.0000 C   0  0  0  0  0  0  0  0  0  0  0  0
    0.0000    0.0000    0.0000 C   0  0  0  0  0  0  0  0  0  0  0  0
    0.0000    0.0000    0.0000 C   0  0  0  0  0  0  0  0  0  0  0  0
    0.0000    0.0000    0.0000 O   0  0  0  0  0  0  0  0  0  0  0  0
    0.0000    0.0000    0.0000 C   0  0  0  0  0  0  0  0  0  0  0  0
    0.0000    0.0000    0.0000 C   0  0  0  0  0  0  0  0  0  0  0  0
    0.0000    0.0000    0.0000 O   0  0  0  0  0  0  0  0  0  0  0  0
    0.0000    0.0000    0.0000 C   0  0  0  0  0  0  0  0  0  0  0  0
    0.0000    0.0000    0.0000 C   0  0  0  0  0  0  0  0  0  0  0  0
    0.0000    0.0000    0.0000 C   0  0  0  0  0  0  0  0  0  0  0  0
    0.0000    0.0000    0.0000 C   0  0  0  0  0  0  0  0  0  0  0  0
    0.0000    0.0000    0.0000 C   0  0  0  0  0  0  0  0  0  0  0  0
    0.0000    0.0000    0.0000 C   0  0  0  0  0  0  0  0  0  0  0  0
    0.0000    0.0000    0.0000 C   0  0  0  0  0  0  0  0  0  0  0  0
    0.0000    0.0000    0.0000 C   0  0  0  0  0  0  0  0  0  0  0  0
    0.0000    0.0000    0.0000 N   0  0  0  0  0  0  0  0  0  0  0  0
    0.0000    0.0000    0.0000 C   0  0  0  0  0  0  0  0  0  0  0  0
    0.0000    0.0000    0.0000 N   0  0  0  0  0  0  0  0  0  0  0  0
    0.0000    0.0000    0.0000 N   0  0  0  0  0  0  0  0  0  0  0  0
    0.0000    0.0000    0.0000 C   0  0  0  0  0  0  0  0  0  0  0  0
    0.0000    0.0000    0.0000 N   0  0  0  0  0  0  0  0  0  0  0  0
  1  2  1  0
  2  3  1  0
  3  4  2  0
  4  5  1  0
  5  6  2  0
  6  7  1  0
  7  8  1  0
  8  9  1  0
  7 10  2  0
 10 11  1  0
 11 12  1  0
  5 13  1  0
 13 14  1  0
 13 15  1  0
 15 16  3  0
 16 17  1  0
 17 18  2  0
 18 19  1  0
 18 20  1  0
 20 21  2  0
 21 22  1  0
 21 23  1  0
 23 24  2  0
 24 25  1  0
 10  3  1  0
 24 17  1  0
M  END
>  <pIC50>  (371) 
5.86

>  <ChEMBL_ID>  (371) 
CHEMBL223301

>  <document_journal>  (371) 
J. Med. Chem.

>  <bao_endpoint>  (371) 
BAO_0000190

>  <potential_duplicate>  (371) 
False

>  <uo_units>  (371) 
UO_0000065

>  <canonical_smiles>  (371) 
COc1cc(cc(OC)c1OC)[C@@H](C)C#Cc2c(C)nc(N)nc2N

>  <parent_molecule_chembl_id>  (371) 
CHEMBL223301

>  <assay_type>  (371) 
B

>  <src_id>  (371) 
1

>  <ligand_efficiency>  (371) 
{u'le': u'0.32', u'bei': u'17.12', u'sei': u'5.55', u'lle': u'3.19'}

>  <standard_flag>  (371) 
True

>  <molecule_chembl_id>  (371) 
CHEMBL223301

>  <target_organism>  (371) 
Homo sapiens

>  <standard_units>  (371) 
nM

>  <record_id>  (371) 
801856

>  <document_chembl_id>  (371) 
CHEMBL1142493

>  <bao_format>  (371) 
BAO_0000357

>  <data_validity_description>  (371) 
None

>  <activity_id>  (371) 
2470440

>  <standard_type>  (371) 
IC50

>  <target_chembl_id>  (371) 
CHEMBL202

>  <data_validity_comment>  (371) 
None

>  <published_value>  (371) 
1380

>  <document_year>  (371) 
2008

>  <target_pref_name>  (371) 
Dihydrofolate reductase

>  <assay_chembl_id>  (371) 
CHEMBL995078

>  <standard_relation>  (371) 
=

>  <assay_description>  (371) 
Inhibition of human dihydrofolate reductase by spectrophotometry

>  <published_relation>  (371) 
=

>  <standard_value>  (371) 
1380

>  <qudt_units>  (371) 
http://www.openphacts.org/units/Nanomolar

>  <target_tax_id>  (371) 
9606

>  <bao_label>  (371) 
single protein format

>  <published_units>  (371) 
nM

>  <pchembl_value>  (371) 
5.86

>  <published_type>  (371) 
IC50

>  <activity_comment>  (371) 
None

$$$$

     RDKit          

 27 29  0  0  0  0  0  0  0  0999 V2000
    0.0000    0.0000    0.0000 C   0  0  0  0  0  0  0  0  0  0  0  0
    0.0000    0.0000    0.0000 O   0  0  0  0  0  0  0  0  0  0  0  0
    0.0000    0.0000    0.0000 C   0  0  0  0  0  0  0  0  0  0  0  0
    0.0000    0.0000    0.0000 C   0  0  0  0  0  0  0  0  0  0  0  0
    0.0000    0.0000    0.0000 C   0  0  0  0  0  0  0  0  0  0  0  0
    0.0000    0.0000    0.0000 C   0  0  0  0  0  0  0  0  0  0  0  0
    0.0000    0.0000    0.0000 C   0  0  0  0  0  0  0  0  0  0  0  0
    0.0000    0.0000    0.0000 C   0  0  0  0  0  0  0  0  0  0  0  0
    0.0000    0.0000    0.0000 C   0  0  0  0  0  0  0  0  0  0  0  0
    0.0000    0.0000    0.0000 C   0  0  0  0  0  0  0  0  0  0  0  0
    0.0000    0.0000    0.0000 C   0  0  0  0  0  0  0  0  0  0  0  0
    0.0000    0.0000    0.0000 C   0  0  0  0  0  0  0  0  0  0  0  0
    0.0000    0.0000    0.0000 C   0  0  0  0  0  0  0  0  0  0  0  0
    0.0000    0.0000    0.0000 C   0  0  0  0  0  0  0  0  0  0  0  0
    0.0000    0.0000    0.0000 C   0  0  0  0  0  0  0  0  0  0  0  0
    0.0000    0.0000    0.0000 C   0  0  0  0  0  0  0  0  0  0  0  0
    0.0000    0.0000    0.0000 C   0  0  0  0  0  0  0  0  0  0  0  0
    0.0000    0.0000    0.0000 C   0  0  0  0  0  0  0  0  0  0  0  0
    0.0000    0.0000    0.0000 C   0  0  0  0  0  0  0  0  0  0  0  0
    0.0000    0.0000    0.0000 C   0  0  0  0  0  0  0  0  0  0  0  0
    0.0000    0.0000    0.0000 C   0  0  0  0  0  0  0  0  0  0  0  0
    0.0000    0.0000    0.0000 N   0  0  0  0  0  0  0  0  0  0  0  0
    0.0000    0.0000    0.0000 C   0  0  0  0  0  0  0  0  0  0  0  0
    0.0000    0.0000    0.0000 N   0  0  0  0  0  0  0  0  0  0  0  0
    0.0000    0.0000    0.0000 N   0  0  0  0  0  0  0  0  0  0  0  0
    0.0000    0.0000    0.0000 C   0  0  0  0  0  0  0  0  0  0  0  0
    0.0000    0.0000    0.0000 N   0  0  0  0  0  0  0  0  0  0  0  0
  1  2  1  0
  2  3  1  0
  3  4  2  0
  4  5  1  0
  5  6  2  0
  6  7  1  0
  7  8  2  0
  7  9  1  0
  9 10  2  0
 10 11  1  0
 11 12  2  0
 12 13  1  0
 13 14  2  0
  5 15  1  0
 15 16  1  0
 15 17  1  0
 17 18  3  0
 18 19  1  0
 19 20  2  0
 20 21  1  0
 20 22  1  0
 22 23  2  0
 23 24  1  0
 23 25  1  0
 25 26  2  0
 26 27  1  0
  8  3  1  0
 14  9  1  0
 26 19  1  0
M  END
>  <pIC50>  (372) 
5.77

>  <ChEMBL_ID>  (372) 
CHEMBL520358

>  <document_journal>  (372) 
J. Med. Chem.

>  <bao_endpoint>  (372) 
BAO_0000190

>  <potential_duplicate>  (372) 
False

>  <uo_units>  (372) 
UO_0000065

>  <canonical_smiles>  (372) 
COc1cc(cc(c1)c2ccccc2)C(C)C#Cc3c(C)nc(N)nc3N

>  <parent_molecule_chembl_id>  (372) 
CHEMBL520358

>  <assay_type>  (372) 
B

>  <src_id>  (372) 
1

>  <ligand_efficiency>  (372) 
{u'le': u'0.29', u'bei': u'16.1', u'sei': u'6.63', u'lle': u'1.55'}

>  <standard_flag>  (372) 
True

>  <molecule_chembl_id>  (372) 
CHEMBL520358

>  <target_organism>  (372) 
Homo sapiens

>  <standard_units>  (372) 
nM

>  <record_id>  (372) 
801857

>  <document_chembl_id>  (372) 
CHEMBL1142493

>  <bao_format>  (372) 
BAO_0000357

>  <data_validity_description>  (372) 
None

>  <activity_id>  (372) 
2470441

>  <standard_type>  (372) 
IC50

>  <target_chembl_id>  (372) 
CHEMBL202

>  <data_validity_comment>  (372) 
None

>  <published_value>  (372) 
1700

>  <document_year>  (372) 
2008

>  <target_pref_name>  (372) 
Dihydrofolate reductase

>  <assay_chembl_id>  (372) 
CHEMBL995078

>  <standard_relation>  (372) 
=

>  <assay_description>  (372) 
Inhibition of human dihydrofolate reductase by spectrophotometry

>  <published_relation>  (372) 
=

>  <standard_value>  (372) 
1700

>  <qudt_units>  (372) 
http://www.openphacts.org/units/Nanomolar

>  <target_tax_id>  (372) 
9606

>  <bao_label>  (372) 
single protein format

>  <published_units>  (372) 
nM

>  <pchembl_value>  (372) 
5.77

>  <published_type>  (372) 
IC50

>  <activity_comment>  (372) 
None

$$$$

     RDKit          

 28 30  0  0  0  0  0  0  0  0999 V2000
    0.0000    0.0000    0.0000 C   0  0  0  0  0  0  0  0  0  0  0  0
    0.0000    0.0000    0.0000 O   0  0  0  0  0  0  0  0  0  0  0  0
    0.0000    0.0000    0.0000 C   0  0  0  0  0  0  0  0  0  0  0  0
    0.0000    0.0000    0.0000 C   0  0  0  0  0  0  0  0  0  0  0  0
    0.0000    0.0000    0.0000 C   0  0  0  0  0  0  0  0  0  0  0  0
    0.0000    0.0000    0.0000 C   0  0  0  0  0  0  0  0  0  0  0  0
    0.0000    0.0000    0.0000 C   0  0  0  0  0  0  0  0  0  0  0  0
    0.0000    0.0000    0.0000 C   0  0  0  0  0  0  0  0  0  0  0  0
    0.0000    0.0000    0.0000 C   0  0  0  0  0  0  0  0  0  0  0  0
    0.0000    0.0000    0.0000 C   0  0  0  0  0  0  0  0  0  0  0  0
    0.0000    0.0000    0.0000 C   0  0  0  0  0  0  0  0  0  0  0  0
    0.0000    0.0000    0.0000 C   0  0  0  0  0  0  0  0  0  0  0  0
    0.0000    0.0000    0.0000 C   0  0  0  0  0  0  0  0  0  0  0  0
    0.0000    0.0000    0.0000 C   0  0  0  0  0  0  0  0  0  0  0  0
    0.0000    0.0000    0.0000 C   0  0  0  0  0  0  0  0  0  0  0  0
    0.0000    0.0000    0.0000 C   0  0  0  0  0  0  0  0  0  0  0  0
    0.0000    0.0000    0.0000 C   0  0  0  0  0  0  0  0  0  0  0  0
    0.0000    0.0000    0.0000 C   0  0  0  0  0  0  0  0  0  0  0  0
    0.0000    0.0000    0.0000 C   0  0  0  0  0  0  0  0  0  0  0  0
    0.0000    0.0000    0.0000 C   0  0  0  0  0  0  0  0  0  0  0  0
    0.0000    0.0000    0.0000 C   0  0  0  0  0  0  0  0  0  0  0  0
    0.0000    0.0000    0.0000 C   0  0  0  0  0  0  0  0  0  0  0  0
    0.0000    0.0000    0.0000 N   0  0  0  0  0  0  0  0  0  0  0  0
    0.0000    0.0000    0.0000 C   0  0  0  0  0  0  0  0  0  0  0  0
    0.0000    0.0000    0.0000 N   0  0  0  0  0  0  0  0  0  0  0  0
    0.0000    0.0000    0.0000 N   0  0  0  0  0  0  0  0  0  0  0  0
    0.0000    0.0000    0.0000 C   0  0  0  0  0  0  0  0  0  0  0  0
    0.0000    0.0000    0.0000 N   0  0  0  0  0  0  0  0  0  0  0  0
  1  2  1  0
  2  3  1  0
  3  4  2  0
  4  5  1  0
  5  6  2  0
  6  7  1  0
  7  8  2  0
  7  9  1  0
  9 10  2  0
 10 11  1  0
 11 12  2  0
 12 13  1  0
 13 14  2  0
 14 15  1  0
  5 16  1  0
 16 17  1  0
 16 18  1  0
 18 19  3  0
 19 20  1  0
 20 21  2  0
 21 22  1  0
 21 23  1  0
 23 24  2  0
 24 25  1  0
 24 26  1  0
 26 27  2  0
 27 28  1  0
  8  3  1  0
 14  9  1  0
 27 20  1  0
M  END
>  <pIC50>  (373) 
5.87

>  <ChEMBL_ID>  (373) 
CHEMBL485569

>  <document_journal>  (373) 
J. Med. Chem.

>  <bao_endpoint>  (373) 
BAO_0000190

>  <potential_duplicate>  (373) 
False

>  <uo_units>  (373) 
UO_0000065

>  <canonical_smiles>  (373) 
COc1cc(cc(c1)c2ccccc2C)C(C)C#Cc3c(C)nc(N)nc3N

>  <parent_molecule_chembl_id>  (373) 
CHEMBL485569

>  <assay_type>  (373) 
B

>  <src_id>  (373) 
1

>  <ligand_efficiency>  (373) 
{u'le': u'0.29', u'bei': u'15.75', u'sei': u'6.74', u'lle': u'1.16'}

>  <standard_flag>  (373) 
True

>  <molecule_chembl_id>  (373) 
CHEMBL485569

>  <target_organism>  (373) 
Homo sapiens

>  <standard_units>  (373) 
nM

>  <record_id>  (373) 
801858

>  <document_chembl_id>  (373) 
CHEMBL1142493

>  <bao_format>  (373) 
BAO_0000357

>  <data_validity_description>  (373) 
None

>  <activity_id>  (373) 
2470442

>  <standard_type>  (373) 
IC50

>  <target_chembl_id>  (373) 
CHEMBL202

>  <data_validity_comment>  (373) 
None

>  <published_value>  (373) 
1360

>  <document_year>  (373) 
2008

>  <target_pref_name>  (373) 
Dihydrofolate reductase

>  <assay_chembl_id>  (373) 
CHEMBL995078

>  <standard_relation>  (373) 
=

>  <assay_description>  (373) 
Inhibition of human dihydrofolate reductase by spectrophotometry

>  <published_relation>  (373) 
=

>  <standard_value>  (373) 
1360

>  <qudt_units>  (373) 
http://www.openphacts.org/units/Nanomolar

>  <target_tax_id>  (373) 
9606

>  <bao_label>  (373) 
single protein format

>  <published_units>  (373) 
nM

>  <pchembl_value>  (373) 
5.87

>  <published_type>  (373) 
IC50

>  <activity_comment>  (373) 
None

$$$$

     RDKit          

 29 31  0  0  0  0  0  0  0  0999 V2000
    0.0000    0.0000    0.0000 C   0  0  0  0  0  0  0  0  0  0  0  0
    0.0000    0.0000    0.0000 O   0  0  0  0  0  0  0  0  0  0  0  0
    0.0000    0.0000    0.0000 C   0  0  0  0  0  0  0  0  0  0  0  0
    0.0000    0.0000    0.0000 C   0  0  0  0  0  0  0  0  0  0  0  0
    0.0000    0.0000    0.0000 C   0  0  0  0  0  0  0  0  0  0  0  0
    0.0000    0.0000    0.0000 C   0  0  0  0  0  0  0  0  0  0  0  0
    0.0000    0.0000    0.0000 C   0  0  0  0  0  0  0  0  0  0  0  0
    0.0000    0.0000    0.0000 C   0  0  0  0  0  0  0  0  0  0  0  0
    0.0000    0.0000    0.0000 C   0  0  0  0  0  0  0  0  0  0  0  0
    0.0000    0.0000    0.0000 C   0  0  0  0  0  0  0  0  0  0  0  0
    0.0000    0.0000    0.0000 C   0  0  0  0  0  0  0  0  0  0  0  0
    0.0000    0.0000    0.0000 C   0  0  0  0  0  0  0  0  0  0  0  0
    0.0000    0.0000    0.0000 C   0  0  0  0  0  0  0  0  0  0  0  0
    0.0000    0.0000    0.0000 C   0  0  0  0  0  0  0  0  0  0  0  0
    0.0000    0.0000    0.0000 C   0  0  0  0  0  0  0  0  0  0  0  0
    0.0000    0.0000    0.0000 C   0  0  0  0  0  0  0  0  0  0  0  0
    0.0000    0.0000    0.0000 C   0  0  0  0  0  0  0  0  0  0  0  0
    0.0000    0.0000    0.0000 C   0  0  0  0  0  0  0  0  0  0  0  0
    0.0000    0.0000    0.0000 C   0  0  0  0  0  0  0  0  0  0  0  0
    0.0000    0.0000    0.0000 C   0  0  0  0  0  0  0  0  0  0  0  0
    0.0000    0.0000    0.0000 C   0  0  0  0  0  0  0  0  0  0  0  0
    0.0000    0.0000    0.0000 C   0  0  0  0  0  0  0  0  0  0  0  0
    0.0000    0.0000    0.0000 C   0  0  0  0  0  0  0  0  0  0  0  0
    0.0000    0.0000    0.0000 N   0  0  0  0  0  0  0  0  0  0  0  0
    0.0000    0.0000    0.0000 C   0  0  0  0  0  0  0  0  0  0  0  0
    0.0000    0.0000    0.0000 N   0  0  0  0  0  0  0  0  0  0  0  0
    0.0000    0.0000    0.0000 N   0  0  0  0  0  0  0  0  0  0  0  0
    0.0000    0.0000    0.0000 C   0  0  0  0  0  0  0  0  0  0  0  0
    0.0000    0.0000    0.0000 N   0  0  0  0  0  0  0  0  0  0  0  0
  1  2  1  0
  2  3  1  0
  3  4  2  0
  4  5  1  0
  5  6  2  0
  6  7  1  0
  7  8  2  0
  7  9  1  0
  9 10  2  0
 10 11  1  0
 10 12  1  0
 12 13  2  0
 13 14  1  0
 14 15  2  0
 15 16  1  0
  5 17  1  0
 17 18  1  0
 17 19  1  0
 19 20  3  0
 20 21  1  0
 21 22  2  0
 22 23  1  0
 22 24  1  0
 24 25  2  0
 25 26  1  0
 25 27  1  0
 27 28  2  0
 28 29  1  0
  8  3  1  0
 15  9  1  0
 28 21  1  0
M  END
>  <pIC50>  (374) 
5.9

>  <ChEMBL_ID>  (374) 
CHEMBL457725

>  <document_journal>  (374) 
J. Med. Chem.

>  <bao_endpoint>  (374) 
BAO_0000190

>  <potential_duplicate>  (374) 
False

>  <uo_units>  (374) 
UO_0000065

>  <canonical_smiles>  (374) 
COc1cc(cc(c1)c2c(C)cccc2C)C(C)C#Cc3c(C)nc(N)nc3N

>  <parent_molecule_chembl_id>  (374) 
CHEMBL457725

>  <assay_type>  (374) 
B

>  <src_id>  (374) 
1

>  <ligand_efficiency>  (374) 
{u'le': u'0.28', u'bei': u'15.27', u'sei': u'6.78', u'lle': u'0.71'}

>  <standard_flag>  (374) 
True

>  <molecule_chembl_id>  (374) 
CHEMBL457725

>  <target_organism>  (374) 
Homo sapiens

>  <standard_units>  (374) 
nM

>  <record_id>  (374) 
801935

>  <document_chembl_id>  (374) 
CHEMBL1142493

>  <bao_format>  (374) 
BAO_0000357

>  <data_validity_description>  (374) 
None

>  <activity_id>  (374) 
2470443

>  <standard_type>  (374) 
IC50

>  <target_chembl_id>  (374) 
CHEMBL202

>  <data_validity_comment>  (374) 
None

>  <published_value>  (374) 
1250

>  <document_year>  (374) 
2008

>  <target_pref_name>  (374) 
Dihydrofolate reductase

>  <assay_chembl_id>  (374) 
CHEMBL995078

>  <standard_relation>  (374) 
=

>  <assay_description>  (374) 
Inhibition of human dihydrofolate reductase by spectrophotometry

>  <published_relation>  (374) 
=

>  <standard_value>  (374) 
1250

>  <qudt_units>  (374) 
http://www.openphacts.org/units/Nanomolar

>  <target_tax_id>  (374) 
9606

>  <bao_label>  (374) 
single protein format

>  <published_units>  (374) 
nM

>  <pchembl_value>  (374) 
5.9

>  <published_type>  (374) 
IC50

>  <activity_comment>  (374) 
None

$$$$

     RDKit          

 33 35  0  0  0  0  0  0  0  0999 V2000
    0.0000    0.0000    0.0000 C   0  0  0  0  0  0  0  0  0  0  0  0
    0.0000    0.0000    0.0000 O   0  0  0  0  0  0  0  0  0  0  0  0
    0.0000    0.0000    0.0000 C   0  0  0  0  0  0  0  0  0  0  0  0
    0.0000    0.0000    0.0000 C   0  0  0  0  0  0  0  0  0  0  0  0
    0.0000    0.0000    0.0000 C   0  0  0  0  0  0  0  0  0  0  0  0
    0.0000    0.0000    0.0000 C   0  0  0  0  0  0  0  0  0  0  0  0
    0.0000    0.0000    0.0000 C   0  0  0  0  0  0  0  0  0  0  0  0
    0.0000    0.0000    0.0000 C   0  0  0  0  0  0  0  0  0  0  0  0
    0.0000    0.0000    0.0000 C   0  0  0  0  0  0  0  0  0  0  0  0
    0.0000    0.0000    0.0000 C   0  0  0  0  0  0  0  0  0  0  0  0
    0.0000    0.0000    0.0000 C   0  0  0  0  0  0  0  0  0  0  0  0
    0.0000    0.0000    0.0000 C   0  0  0  0  0  0  0  0  0  0  0  0
    0.0000    0.0000    0.0000 C   0  0  0  0  0  0  0  0  0  0  0  0
    0.0000    0.0000    0.0000 C   0  0  0  0  0  0  0  0  0  0  0  0
    0.0000    0.0000    0.0000 C   0  0  0  0  0  0  0  0  0  0  0  0
    0.0000    0.0000    0.0000 C   0  0  0  0  0  0  0  0  0  0  0  0
    0.0000    0.0000    0.0000 C   0  0  0  0  0  0  0  0  0  0  0  0
    0.0000    0.0000    0.0000 C   0  0  0  0  0  0  0  0  0  0  0  0
    0.0000    0.0000    0.0000 C   0  0  0  0  0  0  0  0  0  0  0  0
    0.0000    0.0000    0.0000 C   0  0  0  0  0  0  0  0  0  0  0  0
    0.0000    0.0000    0.0000 C   0  0  0  0  0  0  0  0  0  0  0  0
    0.0000    0.0000    0.0000 C   0  0  0  0  0  0  0  0  0  0  0  0
    0.0000    0.0000    0.0000 C   0  0  0  0  0  0  0  0  0  0  0  0
    0.0000    0.0000    0.0000 C   0  0  0  0  0  0  0  0  0  0  0  0
    0.0000    0.0000    0.0000 C   0  0  0  0  0  0  0  0  0  0  0  0
    0.0000    0.0000    0.0000 C   0  0  0  0  0  0  0  0  0  0  0  0
    0.0000    0.0000    0.0000 C   0  0  0  0  0  0  0  0  0  0  0  0
    0.0000    0.0000    0.0000 N   0  0  0  0  0  0  0  0  0  0  0  0
    0.0000    0.0000    0.0000 C   0  0  0  0  0  0  0  0  0  0  0  0
    0.0000    0.0000    0.0000 N   0  0  0  0  0  0  0  0  0  0  0  0
    0.0000    0.0000    0.0000 N   0  0  0  0  0  0  0  0  0  0  0  0
    0.0000    0.0000    0.0000 C   0  0  0  0  0  0  0  0  0  0  0  0
    0.0000    0.0000    0.0000 N   0  0  0  0  0  0  0  0  0  0  0  0
  1  2  1  0
  2  3  1  0
  3  4  2  0
  4  5  1  0
  5  6  2  0
  6  7  1  0
  7  8  2  0
  7  9  1  0
  9 10  2  0
 10 11  1  0
 11 12  2  0
 12 13  1  0
 13 14  2  0
 14 15  1  0
 15 16  1  0
 15 17  1  0
 10 18  1  0
 18 19  1  0
 18 20  1  0
  5 21  1  0
 21 22  1  0
 21 23  1  0
 23 24  3  0
 24 25  1  0
 25 26  2  0
 26 27  1  0
 26 28  1  0
 28 29  2  0
 29 30  1  0
 29 31  1  0
 31 32  2  0
 32 33  1  0
  8  3  1  0
 14  9  1  0
 32 25  1  0
M  END
>  <pIC50>  (375) 
5.14

>  <ChEMBL_ID>  (375) 
CHEMBL457726

>  <document_journal>  (375) 
J. Med. Chem.

>  <bao_endpoint>  (375) 
BAO_0000190

>  <potential_duplicate>  (375) 
False

>  <uo_units>  (375) 
UO_0000065

>  <canonical_smiles>  (375) 
COc1cc(cc(c1)c2c(cccc2C(C)C)C(C)C)C(C)C#Cc3c(C)nc(N)nc3N

>  <parent_molecule_chembl_id>  (375) 
CHEMBL457726

>  <assay_type>  (375) 
B

>  <src_id>  (375) 
1

>  <ligand_efficiency>  (375) 
{u'le': u'0.21', u'bei': u'11.62', u'sei': u'5.91', u'lle': u'-1.47'}

>  <standard_flag>  (375) 
True

>  <molecule_chembl_id>  (375) 
CHEMBL457726

>  <target_organism>  (375) 
Homo sapiens

>  <standard_units>  (375) 
nM

>  <record_id>  (375) 
801936

>  <document_chembl_id>  (375) 
CHEMBL1142493

>  <bao_format>  (375) 
BAO_0000357

>  <data_validity_description>  (375) 
None

>  <activity_id>  (375) 
2470444

>  <standard_type>  (375) 
IC50

>  <target_chembl_id>  (375) 
CHEMBL202

>  <data_validity_comment>  (375) 
None

>  <published_value>  (375) 
7200

>  <document_year>  (375) 
2008

>  <target_pref_name>  (375) 
Dihydrofolate reductase

>  <assay_chembl_id>  (375) 
CHEMBL995078

>  <standard_relation>  (375) 
=

>  <assay_description>  (375) 
Inhibition of human dihydrofolate reductase by spectrophotometry

>  <published_relation>  (375) 
=

>  <standard_value>  (375) 
7200

>  <qudt_units>  (375) 
http://www.openphacts.org/units/Nanomolar

>  <target_tax_id>  (375) 
9606

>  <bao_label>  (375) 
single protein format

>  <published_units>  (375) 
nM

>  <pchembl_value>  (375) 
5.14

>  <published_type>  (375) 
IC50

>  <activity_comment>  (375) 
None

$$$$

     RDKit          

 27 29  0  0  0  0  0  0  0  0999 V2000
    0.0000    0.0000    0.0000 C   0  0  0  0  0  0  0  0  0  0  0  0
    0.0000    0.0000    0.0000 O   0  0  0  0  0  0  0  0  0  0  0  0
    0.0000    0.0000    0.0000 C   0  0  0  0  0  0  0  0  0  0  0  0
    0.0000    0.0000    0.0000 C   0  0  0  0  0  0  0  0  0  0  0  0
    0.0000    0.0000    0.0000 C   0  0  0  0  0  0  0  0  0  0  0  0
    0.0000    0.0000    0.0000 C   0  0  0  0  0  0  0  0  0  0  0  0
    0.0000    0.0000    0.0000 C   0  0  0  0  0  0  0  0  0  0  0  0
    0.0000    0.0000    0.0000 C   0  0  0  0  0  0  0  0  0  0  0  0
    0.0000    0.0000    0.0000 C   0  0  0  0  0  0  0  0  0  0  0  0
    0.0000    0.0000    0.0000 C   0  0  0  0  0  0  0  0  0  0  0  0
    0.0000    0.0000    0.0000 C   0  0  0  0  0  0  0  0  0  0  0  0
    0.0000    0.0000    0.0000 C   0  0  0  0  0  0  0  0  0  0  0  0
    0.0000    0.0000    0.0000 C   0  0  0  0  0  0  0  0  0  0  0  0
    0.0000    0.0000    0.0000 C   0  0  0  0  0  0  0  0  0  0  0  0
    0.0000    0.0000    0.0000 C   0  0  0  0  0  0  0  0  0  0  0  0
    0.0000    0.0000    0.0000 C   0  0  0  0  0  0  0  0  0  0  0  0
    0.0000    0.0000    0.0000 C   0  0  0  0  0  0  0  0  0  0  0  0
    0.0000    0.0000    0.0000 C   0  0  0  0  0  0  0  0  0  0  0  0
    0.0000    0.0000    0.0000 C   0  0  0  0  0  0  0  0  0  0  0  0
    0.0000    0.0000    0.0000 C   0  0  0  0  0  0  0  0  0  0  0  0
    0.0000    0.0000    0.0000 C   0  0  0  0  0  0  0  0  0  0  0  0
    0.0000    0.0000    0.0000 N   0  0  0  0  0  0  0  0  0  0  0  0
    0.0000    0.0000    0.0000 C   0  0  0  0  0  0  0  0  0  0  0  0
    0.0000    0.0000    0.0000 N   0  0  0  0  0  0  0  0  0  0  0  0
    0.0000    0.0000    0.0000 N   0  0  0  0  0  0  0  0  0  0  0  0
    0.0000    0.0000    0.0000 C   0  0  0  0  0  0  0  0  0  0  0  0
    0.0000    0.0000    0.0000 N   0  0  0  0  0  0  0  0  0  0  0  0
  1  2  1  0
  2  3  1  0
  3  4  2  0
  4  5  1  0
  5  6  2  0
  6  7  1  0
  7  8  2  0
  8  9  1  0
  9 10  2  0
 10 11  1  0
 11 12  2  0
 12 13  1  0
 13 14  2  0
  5 15  1  0
 15 16  1  0
 15 17  1  0
 17 18  3  0
 18 19  1  0
 19 20  2  0
 20 21  1  0
 20 22  1  0
 22 23  2  0
 23 24  1  0
 23 25  1  0
 25 26  2  0
 26 27  1  0
  8  3  1  0
 14  9  1  0
 26 19  1  0
M  END
>  <pIC50>  (376) 
5.85

>  <ChEMBL_ID>  (376) 
CHEMBL457905

>  <document_journal>  (376) 
J. Med. Chem.

>  <bao_endpoint>  (376) 
BAO_0000190

>  <potential_duplicate>  (376) 
False

>  <uo_units>  (376) 
UO_0000065

>  <canonical_smiles>  (376) 
COc1cc(ccc1c2ccccc2)C(C)C#Cc3c(C)nc(N)nc3N

>  <parent_molecule_chembl_id>  (376) 
CHEMBL457905

>  <assay_type>  (376) 
B

>  <src_id>  (376) 
1

>  <ligand_efficiency>  (376) 
{u'le': u'0.3', u'bei': u'16.31', u'sei': u'6.72', u'lle': u'1.63'}

>  <standard_flag>  (376) 
True

>  <molecule_chembl_id>  (376) 
CHEMBL457905

>  <target_organism>  (376) 
Homo sapiens

>  <standard_units>  (376) 
nM

>  <record_id>  (376) 
801937

>  <document_chembl_id>  (376) 
CHEMBL1142493

>  <bao_format>  (376) 
BAO_0000357

>  <data_validity_description>  (376) 
None

>  <activity_id>  (376) 
2470445

>  <standard_type>  (376) 
IC50

>  <target_chembl_id>  (376) 
CHEMBL202

>  <data_validity_comment>  (376) 
None

>  <published_value>  (376) 
1420

>  <document_year>  (376) 
2008

>  <target_pref_name>  (376) 
Dihydrofolate reductase

>  <assay_chembl_id>  (376) 
CHEMBL995078

>  <standard_relation>  (376) 
=

>  <assay_description>  (376) 
Inhibition of human dihydrofolate reductase by spectrophotometry

>  <published_relation>  (376) 
=

>  <standard_value>  (376) 
1420

>  <qudt_units>  (376) 
http://www.openphacts.org/units/Nanomolar

>  <target_tax_id>  (376) 
9606

>  <bao_label>  (376) 
single protein format

>  <published_units>  (376) 
nM

>  <pchembl_value>  (376) 
5.85

>  <published_type>  (376) 
IC50

>  <activity_comment>  (376) 
None

$$$$

     RDKit          

 28 30  0  0  0  0  0  0  0  0999 V2000
    0.0000    0.0000    0.0000 C   0  0  0  0  0  0  0  0  0  0  0  0
    0.0000    0.0000    0.0000 O   0  0  0  0  0  0  0  0  0  0  0  0
    0.0000    0.0000    0.0000 C   0  0  0  0  0  0  0  0  0  0  0  0
    0.0000    0.0000    0.0000 C   0  0  0  0  0  0  0  0  0  0  0  0
    0.0000    0.0000    0.0000 C   0  0  0  0  0  0  0  0  0  0  0  0
    0.0000    0.0000    0.0000 C   0  0  0  0  0  0  0  0  0  0  0  0
    0.0000    0.0000    0.0000 C   0  0  0  0  0  0  0  0  0  0  0  0
    0.0000    0.0000    0.0000 C   0  0  0  0  0  0  0  0  0  0  0  0
    0.0000    0.0000    0.0000 C   0  0  0  0  0  0  0  0  0  0  0  0
    0.0000    0.0000    0.0000 C   0  0  0  0  0  0  0  0  0  0  0  0
    0.0000    0.0000    0.0000 C   0  0  0  0  0  0  0  0  0  0  0  0
    0.0000    0.0000    0.0000 C   0  0  0  0  0  0  0  0  0  0  0  0
    0.0000    0.0000    0.0000 C   0  0  0  0  0  0  0  0  0  0  0  0
    0.0000    0.0000    0.0000 C   0  0  0  0  0  0  0  0  0  0  0  0
    0.0000    0.0000    0.0000 C   0  0  0  0  0  0  0  0  0  0  0  0
    0.0000    0.0000    0.0000 C   0  0  0  0  0  0  0  0  0  0  0  0
    0.0000    0.0000    0.0000 C   0  0  0  0  0  0  0  0  0  0  0  0
    0.0000    0.0000    0.0000 C   0  0  0  0  0  0  0  0  0  0  0  0
    0.0000    0.0000    0.0000 C   0  0  0  0  0  0  0  0  0  0  0  0
    0.0000    0.0000    0.0000 C   0  0  0  0  0  0  0  0  0  0  0  0
    0.0000    0.0000    0.0000 C   0  0  0  0  0  0  0  0  0  0  0  0
    0.0000    0.0000    0.0000 C   0  0  0  0  0  0  0  0  0  0  0  0
    0.0000    0.0000    0.0000 N   0  0  0  0  0  0  0  0  0  0  0  0
    0.0000    0.0000    0.0000 C   0  0  0  0  0  0  0  0  0  0  0  0
    0.0000    0.0000    0.0000 N   0  0  0  0  0  0  0  0  0  0  0  0
    0.0000    0.0000    0.0000 N   0  0  0  0  0  0  0  0  0  0  0  0
    0.0000    0.0000    0.0000 C   0  0  0  0  0  0  0  0  0  0  0  0
    0.0000    0.0000    0.0000 N   0  0  0  0  0  0  0  0  0  0  0  0
  1  2  1  0
  2  3  1  0
  3  4  2  0
  4  5  1  0
  5  6  2  0
  6  7  1  0
  7  8  2  0
  8  9  1  0
  9 10  2  0
 10 11  1  0
 11 12  2  0
 12 13  1  0
 13 14  2  0
 14 15  1  0
  5 16  1  0
 16 17  1  0
 16 18  1  0
 18 19  3  0
 19 20  1  0
 20 21  2  0
 21 22  1  0
 21 23  1  0
 23 24  2  0
 24 25  1  0
 24 26  1  0
 26 27  2  0
 27 28  1  0
  8  3  1  0
 14  9  1  0
 27 20  1  0
M  END
>  <pIC50>  (377) 
5.56

>  <ChEMBL_ID>  (377) 
CHEMBL457906

>  <document_journal>  (377) 
J. Med. Chem.

>  <bao_endpoint>  (377) 
BAO_0000190

>  <potential_duplicate>  (377) 
False

>  <uo_units>  (377) 
UO_0000065

>  <canonical_smiles>  (377) 
COc1cc(ccc1c2ccccc2C)C(C)C#Cc3c(C)nc(N)nc3N

>  <parent_molecule_chembl_id>  (377) 
CHEMBL457906

>  <assay_type>  (377) 
B

>  <src_id>  (377) 
1

>  <ligand_efficiency>  (377) 
{u'le': u'0.27', u'bei': u'14.92', u'sei': u'6.38', u'lle': u'0.85'}

>  <standard_flag>  (377) 
True

>  <molecule_chembl_id>  (377) 
CHEMBL457906

>  <target_organism>  (377) 
Homo sapiens

>  <standard_units>  (377) 
nM

>  <record_id>  (377) 
801938

>  <document_chembl_id>  (377) 
CHEMBL1142493

>  <bao_format>  (377) 
BAO_0000357

>  <data_validity_description>  (377) 
None

>  <activity_id>  (377) 
2470446

>  <standard_type>  (377) 
IC50

>  <target_chembl_id>  (377) 
CHEMBL202

>  <data_validity_comment>  (377) 
None

>  <published_value>  (377) 
2770

>  <document_year>  (377) 
2008

>  <target_pref_name>  (377) 
Dihydrofolate reductase

>  <assay_chembl_id>  (377) 
CHEMBL995078

>  <standard_relation>  (377) 
=

>  <assay_description>  (377) 
Inhibition of human dihydrofolate reductase by spectrophotometry

>  <published_relation>  (377) 
=

>  <standard_value>  (377) 
2770

>  <qudt_units>  (377) 
http://www.openphacts.org/units/Nanomolar

>  <target_tax_id>  (377) 
9606

>  <bao_label>  (377) 
single protein format

>  <published_units>  (377) 
nM

>  <pchembl_value>  (377) 
5.56

>  <published_type>  (377) 
IC50

>  <activity_comment>  (377) 
None

$$$$

     RDKit          

 29 31  0  0  0  0  0  0  0  0999 V2000
    0.0000    0.0000    0.0000 C   0  0  0  0  0  0  0  0  0  0  0  0
    0.0000    0.0000    0.0000 O   0  0  0  0  0  0  0  0  0  0  0  0
    0.0000    0.0000    0.0000 C   0  0  0  0  0  0  0  0  0  0  0  0
    0.0000    0.0000    0.0000 C   0  0  0  0  0  0  0  0  0  0  0  0
    0.0000    0.0000    0.0000 C   0  0  0  0  0  0  0  0  0  0  0  0
    0.0000    0.0000    0.0000 C   0  0  0  0  0  0  0  0  0  0  0  0
    0.0000    0.0000    0.0000 C   0  0  0  0  0  0  0  0  0  0  0  0
    0.0000    0.0000    0.0000 C   0  0  0  0  0  0  0  0  0  0  0  0
    0.0000    0.0000    0.0000 C   0  0  0  0  0  0  0  0  0  0  0  0
    0.0000    0.0000    0.0000 C   0  0  0  0  0  0  0  0  0  0  0  0
    0.0000    0.0000    0.0000 C   0  0  0  0  0  0  0  0  0  0  0  0
    0.0000    0.0000    0.0000 C   0  0  0  0  0  0  0  0  0  0  0  0
    0.0000    0.0000    0.0000 C   0  0  0  0  0  0  0  0  0  0  0  0
    0.0000    0.0000    0.0000 C   0  0  0  0  0  0  0  0  0  0  0  0
    0.0000    0.0000    0.0000 C   0  0  0  0  0  0  0  0  0  0  0  0
    0.0000    0.0000    0.0000 C   0  0  0  0  0  0  0  0  0  0  0  0
    0.0000    0.0000    0.0000 C   0  0  0  0  0  0  0  0  0  0  0  0
    0.0000    0.0000    0.0000 C   0  0  0  0  0  0  0  0  0  0  0  0
    0.0000    0.0000    0.0000 C   0  0  0  0  0  0  0  0  0  0  0  0
    0.0000    0.0000    0.0000 C   0  0  0  0  0  0  0  0  0  0  0  0
    0.0000    0.0000    0.0000 C   0  0  0  0  0  0  0  0  0  0  0  0
    0.0000    0.0000    0.0000 C   0  0  0  0  0  0  0  0  0  0  0  0
    0.0000    0.0000    0.0000 C   0  0  0  0  0  0  0  0  0  0  0  0
    0.0000    0.0000    0.0000 N   0  0  0  0  0  0  0  0  0  0  0  0
    0.0000    0.0000    0.0000 C   0  0  0  0  0  0  0  0  0  0  0  0
    0.0000    0.0000    0.0000 N   0  0  0  0  0  0  0  0  0  0  0  0
    0.0000    0.0000    0.0000 N   0  0  0  0  0  0  0  0  0  0  0  0
    0.0000    0.0000    0.0000 C   0  0  0  0  0  0  0  0  0  0  0  0
    0.0000    0.0000    0.0000 N   0  0  0  0  0  0  0  0  0  0  0  0
  1  2  1  0
  2  3  1  0
  3  4  2  0
  4  5  1  0
  5  6  2  0
  6  7  1  0
  7  8  2  0
  8  9  1  0
  9 10  2  0
 10 11  1  0
 10 12  1  0
 12 13  2  0
 13 14  1  0
 14 15  2  0
 15 16  1  0
  5 17  1  0
 17 18  1  0
 17 19  1  0
 19 20  3  0
 20 21  1  0
 21 22  2  0
 22 23  1  0
 22 24  1  0
 24 25  2  0
 25 26  1  0
 25 27  1  0
 27 28  2  0
 28 29  1  0
  8  3  1  0
 15  9  1  0
 28 21  1  0
M  END
>  <pIC50>  (378) 
5.47

>  <ChEMBL_ID>  (378) 
CHEMBL458817

>  <document_journal>  (378) 
J. Med. Chem.

>  <bao_endpoint>  (378) 
BAO_0000190

>  <potential_duplicate>  (378) 
False

>  <uo_units>  (378) 
UO_0000065

>  <canonical_smiles>  (378) 
COc1cc(ccc1c2c(C)cccc2C)C(C)C#Cc3c(C)nc(N)nc3N

>  <parent_molecule_chembl_id>  (378) 
CHEMBL458817

>  <assay_type>  (378) 
B

>  <src_id>  (378) 
1

>  <ligand_efficiency>  (378) 
{u'le': u'0.26', u'bei': u'14.16', u'sei': u'6.29', u'lle': u'0.28'}

>  <standard_flag>  (378) 
True

>  <molecule_chembl_id>  (378) 
CHEMBL458817

>  <target_organism>  (378) 
Homo sapiens

>  <standard_units>  (378) 
nM

>  <record_id>  (378) 
801939

>  <document_chembl_id>  (378) 
CHEMBL1142493

>  <bao_format>  (378) 
BAO_0000357

>  <data_validity_description>  (378) 
None

>  <activity_id>  (378) 
2470447

>  <standard_type>  (378) 
IC50

>  <target_chembl_id>  (378) 
CHEMBL202

>  <data_validity_comment>  (378) 
None

>  <published_value>  (378) 
3370

>  <document_year>  (378) 
2008

>  <target_pref_name>  (378) 
Dihydrofolate reductase

>  <assay_chembl_id>  (378) 
CHEMBL995078

>  <standard_relation>  (378) 
=

>  <assay_description>  (378) 
Inhibition of human dihydrofolate reductase by spectrophotometry

>  <published_relation>  (378) 
=

>  <standard_value>  (378) 
3370

>  <qudt_units>  (378) 
http://www.openphacts.org/units/Nanomolar

>  <target_tax_id>  (378) 
9606

>  <bao_label>  (378) 
single protein format

>  <published_units>  (378) 
nM

>  <pchembl_value>  (378) 
5.47

>  <published_type>  (378) 
IC50

>  <activity_comment>  (378) 
None

$$$$

     RDKit          

 33 35  0  0  0  0  0  0  0  0999 V2000
    0.0000    0.0000    0.0000 C   0  0  0  0  0  0  0  0  0  0  0  0
    0.0000    0.0000    0.0000 O   0  0  0  0  0  0  0  0  0  0  0  0
    0.0000    0.0000    0.0000 C   0  0  0  0  0  0  0  0  0  0  0  0
    0.0000    0.0000    0.0000 C   0  0  0  0  0  0  0  0  0  0  0  0
    0.0000    0.0000    0.0000 C   0  0  0  0  0  0  0  0  0  0  0  0
    0.0000    0.0000    0.0000 C   0  0  0  0  0  0  0  0  0  0  0  0
    0.0000    0.0000    0.0000 C   0  0  0  0  0  0  0  0  0  0  0  0
    0.0000    0.0000    0.0000 C   0  0  0  0  0  0  0  0  0  0  0  0
    0.0000    0.0000    0.0000 C   0  0  0  0  0  0  0  0  0  0  0  0
    0.0000    0.0000    0.0000 C   0  0  0  0  0  0  0  0  0  0  0  0
    0.0000    0.0000    0.0000 C   0  0  0  0  0  0  0  0  0  0  0  0
    0.0000    0.0000    0.0000 C   0  0  0  0  0  0  0  0  0  0  0  0
    0.0000    0.0000    0.0000 C   0  0  0  0  0  0  0  0  0  0  0  0
    0.0000    0.0000    0.0000 C   0  0  0  0  0  0  0  0  0  0  0  0
    0.0000    0.0000    0.0000 C   0  0  0  0  0  0  0  0  0  0  0  0
    0.0000    0.0000    0.0000 C   0  0  0  0  0  0  0  0  0  0  0  0
    0.0000    0.0000    0.0000 C   0  0  0  0  0  0  0  0  0  0  0  0
    0.0000    0.0000    0.0000 C   0  0  0  0  0  0  0  0  0  0  0  0
    0.0000    0.0000    0.0000 C   0  0  0  0  0  0  0  0  0  0  0  0
    0.0000    0.0000    0.0000 C   0  0  0  0  0  0  0  0  0  0  0  0
    0.0000    0.0000    0.0000 C   0  0  0  0  0  0  0  0  0  0  0  0
    0.0000    0.0000    0.0000 C   0  0  0  0  0  0  0  0  0  0  0  0
    0.0000    0.0000    0.0000 C   0  0  0  0  0  0  0  0  0  0  0  0
    0.0000    0.0000    0.0000 C   0  0  0  0  0  0  0  0  0  0  0  0
    0.0000    0.0000    0.0000 C   0  0  0  0  0  0  0  0  0  0  0  0
    0.0000    0.0000    0.0000 C   0  0  0  0  0  0  0  0  0  0  0  0
    0.0000    0.0000    0.0000 C   0  0  0  0  0  0  0  0  0  0  0  0
    0.0000    0.0000    0.0000 N   0  0  0  0  0  0  0  0  0  0  0  0
    0.0000    0.0000    0.0000 C   0  0  0  0  0  0  0  0  0  0  0  0
    0.0000    0.0000    0.0000 N   0  0  0  0  0  0  0  0  0  0  0  0
    0.0000    0.0000    0.0000 N   0  0  0  0  0  0  0  0  0  0  0  0
    0.0000    0.0000    0.0000 C   0  0  0  0  0  0  0  0  0  0  0  0
    0.0000    0.0000    0.0000 N   0  0  0  0  0  0  0  0  0  0  0  0
  1  2  1  0
  2  3  1  0
  3  4  2  0
  4  5  1  0
  5  6  2  0
  6  7  1  0
  7  8  2  0
  8  9  1  0
  9 10  2  0
 10 11  1  0
 11 12  2  0
 12 13  1  0
 13 14  2  0
 14 15  1  0
 15 16  1  0
 15 17  1  0
 10 18  1  0
 18 19  1  0
 18 20  1  0
  5 21  1  0
 21 22  1  0
 21 23  1  0
 23 24  3  0
 24 25  1  0
 25 26  2  0
 26 27  1  0
 26 28  1  0
 28 29  2  0
 29 30  1  0
 29 31  1  0
 31 32  2  0
 32 33  1  0
  8  3  1  0
 14  9  1  0
 32 25  1  0
M  END
>  <pIC50>  (379) 
5.38

>  <ChEMBL_ID>  (379) 
CHEMBL458829

>  <document_journal>  (379) 
J. Med. Chem.

>  <bao_endpoint>  (379) 
BAO_0000190

>  <potential_duplicate>  (379) 
False

>  <uo_units>  (379) 
UO_0000065

>  <canonical_smiles>  (379) 
COc1cc(ccc1c2c(cccc2C(C)C)C(C)C)C(C)C#Cc3c(C)nc(N)nc3N

>  <parent_molecule_chembl_id>  (379) 
CHEMBL458829

>  <assay_type>  (379) 
B

>  <src_id>  (379) 
1

>  <ligand_efficiency>  (379) 
{u'le': u'0.22', u'bei': u'12.15', u'sei': u'6.18', u'lle': u'-1.23'}

>  <standard_flag>  (379) 
True

>  <molecule_chembl_id>  (379) 
CHEMBL458829

>  <target_organism>  (379) 
Homo sapiens

>  <standard_units>  (379) 
nM

>  <record_id>  (379) 
802026

>  <document_chembl_id>  (379) 
CHEMBL1142493

>  <bao_format>  (379) 
BAO_0000357

>  <data_validity_description>  (379) 
None

>  <activity_id>  (379) 
2470448

>  <standard_type>  (379) 
IC50

>  <target_chembl_id>  (379) 
CHEMBL202

>  <data_validity_comment>  (379) 
None

>  <published_value>  (379) 
4200

>  <document_year>  (379) 
2008

>  <target_pref_name>  (379) 
Dihydrofolate reductase

>  <assay_chembl_id>  (379) 
CHEMBL995078

>  <standard_relation>  (379) 
=

>  <assay_description>  (379) 
Inhibition of human dihydrofolate reductase by spectrophotometry

>  <published_relation>  (379) 
=

>  <standard_value>  (379) 
4200

>  <qudt_units>  (379) 
http://www.openphacts.org/units/Nanomolar

>  <target_tax_id>  (379) 
9606

>  <bao_label>  (379) 
single protein format

>  <published_units>  (379) 
nM

>  <pchembl_value>  (379) 
5.38

>  <published_type>  (379) 
IC50

>  <activity_comment>  (379) 
None

$$$$

     RDKit          

 27 29  0  0  0  0  0  0  0  0999 V2000
    0.0000    0.0000    0.0000 C   0  0  0  0  0  0  0  0  0  0  0  0
    0.0000    0.0000    0.0000 O   0  0  0  0  0  0  0  0  0  0  0  0
    0.0000    0.0000    0.0000 C   0  0  0  0  0  0  0  0  0  0  0  0
    0.0000    0.0000    0.0000 C   0  0  0  0  0  0  0  0  0  0  0  0
    0.0000    0.0000    0.0000 C   0  0  0  0  0  0  0  0  0  0  0  0
    0.0000    0.0000    0.0000 C   0  0  0  0  0  0  0  0  0  0  0  0
    0.0000    0.0000    0.0000 C   0  0  0  0  0  0  0  0  0  0  0  0
    0.0000    0.0000    0.0000 C   0  0  0  0  0  0  0  0  0  0  0  0
    0.0000    0.0000    0.0000 C   0  0  0  0  0  0  0  0  0  0  0  0
    0.0000    0.0000    0.0000 C   0  0  0  0  0  0  0  0  0  0  0  0
    0.0000    0.0000    0.0000 C   0  0  0  0  0  0  0  0  0  0  0  0
    0.0000    0.0000    0.0000 C   0  0  0  0  0  0  0  0  0  0  0  0
    0.0000    0.0000    0.0000 C   0  0  0  0  0  0  0  0  0  0  0  0
    0.0000    0.0000    0.0000 C   0  0  0  0  0  0  0  0  0  0  0  0
    0.0000    0.0000    0.0000 C   0  0  0  0  0  0  0  0  0  0  0  0
    0.0000    0.0000    0.0000 C   0  0  0  0  0  0  0  0  0  0  0  0
    0.0000    0.0000    0.0000 C   0  0  0  0  0  0  0  0  0  0  0  0
    0.0000    0.0000    0.0000 C   0  0  0  0  0  0  0  0  0  0  0  0
    0.0000    0.0000    0.0000 C   0  0  0  0  0  0  0  0  0  0  0  0
    0.0000    0.0000    0.0000 C   0  0  0  0  0  0  0  0  0  0  0  0
    0.0000    0.0000    0.0000 C   0  0  0  0  0  0  0  0  0  0  0  0
    0.0000    0.0000    0.0000 N   0  0  0  0  0  0  0  0  0  0  0  0
    0.0000    0.0000    0.0000 C   0  0  0  0  0  0  0  0  0  0  0  0
    0.0000    0.0000    0.0000 N   0  0  0  0  0  0  0  0  0  0  0  0
    0.0000    0.0000    0.0000 N   0  0  0  0  0  0  0  0  0  0  0  0
    0.0000    0.0000    0.0000 C   0  0  0  0  0  0  0  0  0  0  0  0
    0.0000    0.0000    0.0000 N   0  0  0  0  0  0  0  0  0  0  0  0
  1  2  1  0
  2  3  1  0
  3  4  2  0
  4  5  1  0
  5  6  2  0
  6  7  1  0
  7  8  2  0
  7  9  1  0
  9 10  2  0
 10 11  1  0
 11 12  2  0
 12 13  1  0
 13 14  2  0
  5 15  1  0
 15 16  1  0
 15 17  1  0
 17 18  3  0
 18 19  1  0
 19 20  2  0
 20 21  1  0
 20 22  1  0
 22 23  2  0
 23 24  1  0
 23 25  1  0
 25 26  2  0
 26 27  1  0
  8  3  1  0
 14  9  1  0
 26 19  1  0
M  END
>  <pIC50>  (380) 
5.87

>  <ChEMBL_ID>  (380) 
CHEMBL459177

>  <document_journal>  (380) 
J. Med. Chem.

>  <bao_endpoint>  (380) 
BAO_0000190

>  <potential_duplicate>  (380) 
False

>  <uo_units>  (380) 
UO_0000065

>  <canonical_smiles>  (380) 
COc1cc(cc(c1)c2ccccc2)[C@@H](C)C#Cc3c(C)nc(N)nc3N

>  <parent_molecule_chembl_id>  (380) 
CHEMBL459177

>  <assay_type>  (380) 
B

>  <src_id>  (380) 
1

>  <ligand_efficiency>  (380) 
{u'le': u'0.3', u'bei': u'16.37', u'sei': u'6.74', u'lle': u'1.65'}

>  <standard_flag>  (380) 
True

>  <molecule_chembl_id>  (380) 
CHEMBL459177

>  <target_organism>  (380) 
Homo sapiens

>  <standard_units>  (380) 
nM

>  <record_id>  (380) 
802027

>  <document_chembl_id>  (380) 
CHEMBL1142493

>  <bao_format>  (380) 
BAO_0000357

>  <data_validity_description>  (380) 
None

>  <activity_id>  (380) 
2470449

>  <standard_type>  (380) 
IC50

>  <target_chembl_id>  (380) 
CHEMBL202

>  <data_validity_comment>  (380) 
None

>  <published_value>  (380) 
1360

>  <document_year>  (380) 
2008

>  <target_pref_name>  (380) 
Dihydrofolate reductase

>  <assay_chembl_id>  (380) 
CHEMBL995078

>  <standard_relation>  (380) 
=

>  <assay_description>  (380) 
Inhibition of human dihydrofolate reductase by spectrophotometry

>  <published_relation>  (380) 
=

>  <standard_value>  (380) 
1360

>  <qudt_units>  (380) 
http://www.openphacts.org/units/Nanomolar

>  <target_tax_id>  (380) 
9606

>  <bao_label>  (380) 
single protein format

>  <published_units>  (380) 
nM

>  <pchembl_value>  (380) 
5.87

>  <published_type>  (380) 
IC50

>  <activity_comment>  (380) 
None

$$$$

     RDKit          

 27 29  0  0  0  0  0  0  0  0999 V2000
    0.0000    0.0000    0.0000 C   0  0  0  0  0  0  0  0  0  0  0  0
    0.0000    0.0000    0.0000 O   0  0  0  0  0  0  0  0  0  0  0  0
    0.0000    0.0000    0.0000 C   0  0  0  0  0  0  0  0  0  0  0  0
    0.0000    0.0000    0.0000 C   0  0  0  0  0  0  0  0  0  0  0  0
    0.0000    0.0000    0.0000 C   0  0  0  0  0  0  0  0  0  0  0  0
    0.0000    0.0000    0.0000 C   0  0  0  0  0  0  0  0  0  0  0  0
    0.0000    0.0000    0.0000 C   0  0  0  0  0  0  0  0  0  0  0  0
    0.0000    0.0000    0.0000 C   0  0  0  0  0  0  0  0  0  0  0  0
    0.0000    0.0000    0.0000 C   0  0  0  0  0  0  0  0  0  0  0  0
    0.0000    0.0000    0.0000 C   0  0  0  0  0  0  0  0  0  0  0  0
    0.0000    0.0000    0.0000 C   0  0  0  0  0  0  0  0  0  0  0  0
    0.0000    0.0000    0.0000 C   0  0  0  0  0  0  0  0  0  0  0  0
    0.0000    0.0000    0.0000 C   0  0  0  0  0  0  0  0  0  0  0  0
    0.0000    0.0000    0.0000 C   0  0  0  0  0  0  0  0  0  0  0  0
    0.0000    0.0000    0.0000 C   0  0  0  0  0  0  0  0  0  0  0  0
    0.0000    0.0000    0.0000 C   0  0  0  0  0  0  0  0  0  0  0  0
    0.0000    0.0000    0.0000 C   0  0  0  0  0  0  0  0  0  0  0  0
    0.0000    0.0000    0.0000 C   0  0  0  0  0  0  0  0  0  0  0  0
    0.0000    0.0000    0.0000 C   0  0  0  0  0  0  0  0  0  0  0  0
    0.0000    0.0000    0.0000 C   0  0  0  0  0  0  0  0  0  0  0  0
    0.0000    0.0000    0.0000 C   0  0  0  0  0  0  0  0  0  0  0  0
    0.0000    0.0000    0.0000 N   0  0  0  0  0  0  0  0  0  0  0  0
    0.0000    0.0000    0.0000 C   0  0  0  0  0  0  0  0  0  0  0  0
    0.0000    0.0000    0.0000 N   0  0  0  0  0  0  0  0  0  0  0  0
    0.0000    0.0000    0.0000 N   0  0  0  0  0  0  0  0  0  0  0  0
    0.0000    0.0000    0.0000 C   0  0  0  0  0  0  0  0  0  0  0  0
    0.0000    0.0000    0.0000 N   0  0  0  0  0  0  0  0  0  0  0  0
  1  2  1  0
  2  3  1  0
  3  4  2  0
  4  5  1  0
  5  6  2  0
  6  7  1  0
  7  8  2  0
  7  9  1  0
  9 10  2  0
 10 11  1  0
 11 12  2  0
 12 13  1  0
 13 14  2  0
  5 15  1  0
 15 16  1  0
 15 17  1  0
 17 18  3  0
 18 19  1  0
 19 20  2  0
 20 21  1  0
 20 22  1  0
 22 23  2  0
 23 24  1  0
 23 25  1  0
 25 26  2  0
 26 27  1  0
  8  3  1  0
 14  9  1  0
 26 19  1  0
M  END
>  <pIC50>  (381) 
5.86

>  <ChEMBL_ID>  (381) 
CHEMBL459178

>  <document_journal>  (381) 
J. Med. Chem.

>  <bao_endpoint>  (381) 
BAO_0000190

>  <potential_duplicate>  (381) 
False

>  <uo_units>  (381) 
UO_0000065

>  <canonical_smiles>  (381) 
COc1cc(cc(c1)c2ccccc2)[C@H](C)C#Cc3c(C)nc(N)nc3N

>  <parent_molecule_chembl_id>  (381) 
CHEMBL459178

>  <assay_type>  (381) 
B

>  <src_id>  (381) 
1

>  <ligand_efficiency>  (381) 
{u'le': u'0.3', u'bei': u'16.35', u'sei': u'6.73', u'lle': u'1.64'}

>  <standard_flag>  (381) 
True

>  <molecule_chembl_id>  (381) 
CHEMBL459178

>  <target_organism>  (381) 
Homo sapiens

>  <standard_units>  (381) 
nM

>  <record_id>  (381) 
802028

>  <document_chembl_id>  (381) 
CHEMBL1142493

>  <bao_format>  (381) 
BAO_0000357

>  <data_validity_description>  (381) 
None

>  <activity_id>  (381) 
2470450

>  <standard_type>  (381) 
IC50

>  <target_chembl_id>  (381) 
CHEMBL202

>  <data_validity_comment>  (381) 
None

>  <published_value>  (381) 
1380

>  <document_year>  (381) 
2008

>  <target_pref_name>  (381) 
Dihydrofolate reductase

>  <assay_chembl_id>  (381) 
CHEMBL995078

>  <standard_relation>  (381) 
=

>  <assay_description>  (381) 
Inhibition of human dihydrofolate reductase by spectrophotometry

>  <published_relation>  (381) 
=

>  <standard_value>  (381) 
1380

>  <qudt_units>  (381) 
http://www.openphacts.org/units/Nanomolar

>  <target_tax_id>  (381) 
9606

>  <bao_label>  (381) 
single protein format

>  <published_units>  (381) 
nM

>  <pchembl_value>  (381) 
5.86

>  <published_type>  (381) 
IC50

>  <activity_comment>  (381) 
None

$$$$

     RDKit          

 23 25  0  0  0  0  0  0  0  0999 V2000
    0.0000    0.0000    0.0000 C   0  0  0  0  0  0  0  0  0  0  0  0
    0.0000    0.0000    0.0000 C   0  0  0  0  0  0  0  0  0  0  0  0
    0.0000    0.0000    0.0000 C   0  0  0  0  0  0  0  0  0  0  0  0
    0.0000    0.0000    0.0000 C   0  0  0  0  0  0  0  0  0  0  0  0
    0.0000    0.0000    0.0000 C   0  0  0  0  0  0  0  0  0  0  0  0
    0.0000    0.0000    0.0000 S   0  0  0  0  0  0  0  0  0  0  0  0
    0.0000    0.0000    0.0000 C   0  0  0  0  0  0  0  0  0  0  0  0
    0.0000    0.0000    0.0000 C   0  0  0  0  0  0  0  0  0  0  0  0
    0.0000    0.0000    0.0000 Cl  0  0  0  0  0  0  0  0  0  0  0  0
    0.0000    0.0000    0.0000 C   0  0  0  0  0  0  0  0  0  0  0  0
    0.0000    0.0000    0.0000 C   0  0  0  0  0  0  0  0  0  0  0  0
    0.0000    0.0000    0.0000 C   0  0  0  0  0  0  0  0  0  0  0  0
    0.0000    0.0000    0.0000 C   0  0  0  0  0  0  0  0  0  0  0  0
    0.0000    0.0000    0.0000 Cl  0  0  0  0  0  0  0  0  0  0  0  0
    0.0000    0.0000    0.0000 N   0  0  0  0  0  0  0  0  0  0  0  0
    0.0000    0.0000    0.0000 C   0  0  0  0  0  0  0  0  0  0  0  0
    0.0000    0.0000    0.0000 N   0  0  0  0  0  0  0  0  0  0  0  0
    0.0000    0.0000    0.0000 C   0  0  0  0  0  0  0  0  0  0  0  0
    0.0000    0.0000    0.0000 N   0  0  0  0  0  0  0  0  0  0  0  0
    0.0000    0.0000    0.0000 N   0  0  0  0  0  0  0  0  0  0  0  0
    0.0000    0.0000    0.0000 C   0  0  0  0  0  0  0  0  0  0  0  0
    0.0000    0.0000    0.0000 N   0  0  0  0  0  0  0  0  0  0  0  0
    0.0000    0.0000    0.0000 C   0  0  0  0  0  0  0  0  0  0  0  0
  1  2  1  0
  2  3  1  0
  3  4  1  0
  4  5  2  0
  5  6  1  0
  6  7  1  0
  7  8  2  0
  8  9  1  0
  8 10  1  0
 10 11  2  0
 11 12  1  0
 12 13  2  0
 13 14  1  0
  5 15  1  0
 15 16  1  0
 16 17  2  0
 17 18  1  0
 18 19  1  0
 18 20  2  0
 20 21  1  0
 21 22  1  0
 21 23  2  0
 23  4  1  0
 13  7  1  0
 23 16  1  0
M  END
>  <pIC50>  (382) 
5.59

>  <ChEMBL_ID>  (382) 
CHEMBL514219

>  <document_journal>  (382) 
J. Med. Chem.

>  <bao_endpoint>  (382) 
BAO_0000190

>  <potential_duplicate>  (382) 
False

>  <uo_units>  (382) 
UO_0000065

>  <canonical_smiles>  (382) 
CCCc1c(Sc2c(Cl)cccc2Cl)[nH]c3nc(N)nc(N)c13

>  <parent_molecule_chembl_id>  (382) 
CHEMBL514219

>  <assay_type>  (382) 
B

>  <src_id>  (382) 
1

>  <ligand_efficiency>  (382) 
{u'le': u'0.33', u'bei': u'15.17', u'sei': u'4.7', u'lle': u'0.51'}

>  <standard_flag>  (382) 
True

>  <molecule_chembl_id>  (382) 
CHEMBL514219

>  <target_organism>  (382) 
Homo sapiens

>  <standard_units>  (382) 
nM

>  <record_id>  (382) 
771739

>  <document_chembl_id>  (382) 
CHEMBL1155823

>  <bao_format>  (382) 
BAO_0000357

>  <data_validity_description>  (382) 
None

>  <activity_id>  (382) 
2559183

>  <standard_type>  (382) 
IC50

>  <target_chembl_id>  (382) 
CHEMBL202

>  <data_validity_comment>  (382) 
None

>  <published_value>  (382) 
2.6

>  <document_year>  (382) 
2008

>  <target_pref_name>  (382) 
Dihydrofolate reductase

>  <assay_chembl_id>  (382) 
CHEMBL983757

>  <standard_relation>  (382) 
=

>  <assay_description>  (382) 
Inhibition of human dihydrofolate reductase

>  <published_relation>  (382) 
=

>  <standard_value>  (382) 
2600

>  <qudt_units>  (382) 
http://www.openphacts.org/units/Nanomolar

>  <target_tax_id>  (382) 
9606

>  <bao_label>  (382) 
single protein format

>  <published_units>  (382) 
uM

>  <pchembl_value>  (382) 
5.59

>  <published_type>  (382) 
IC50

>  <activity_comment>  (382) 
None

$$$$

     RDKit          

 25 27  0  0  0  0  0  0  0  0999 V2000
    0.0000    0.0000    0.0000 C   0  0  0  0  0  0  0  0  0  0  0  0
    0.0000    0.0000    0.0000 O   0  0  0  0  0  0  0  0  0  0  0  0
    0.0000    0.0000    0.0000 C   0  0  0  0  0  0  0  0  0  0  0  0
    0.0000    0.0000    0.0000 C   0  0  0  0  0  0  0  0  0  0  0  0
    0.0000    0.0000    0.0000 C   0  0  0  0  0  0  0  0  0  0  0  0
    0.0000    0.0000    0.0000 C   0  0  0  0  0  0  0  0  0  0  0  0
    0.0000    0.0000    0.0000 S   0  0  0  0  0  0  0  0  0  0  0  0
    0.0000    0.0000    0.0000 C   0  0  0  0  0  0  0  0  0  0  0  0
    0.0000    0.0000    0.0000 N   0  0  0  0  0  0  0  0  0  0  0  0
    0.0000    0.0000    0.0000 C   0  0  0  0  0  0  0  0  0  0  0  0
    0.0000    0.0000    0.0000 N   0  0  0  0  0  0  0  0  0  0  0  0
    0.0000    0.0000    0.0000 C   0  0  0  0  0  0  0  0  0  0  0  0
    0.0000    0.0000    0.0000 N   0  0  0  0  0  0  0  0  0  0  0  0
    0.0000    0.0000    0.0000 N   0  0  0  0  0  0  0  0  0  0  0  0
    0.0000    0.0000    0.0000 C   0  0  0  0  0  0  0  0  0  0  0  0
    0.0000    0.0000    0.0000 N   0  0  0  0  0  0  0  0  0  0  0  0
    0.0000    0.0000    0.0000 C   0  0  0  0  0  0  0  0  0  0  0  0
    0.0000    0.0000    0.0000 C   0  0  0  0  0  0  0  0  0  0  0  0
    0.0000    0.0000    0.0000 C   0  0  0  0  0  0  0  0  0  0  0  0
    0.0000    0.0000    0.0000 C   0  0  0  0  0  0  0  0  0  0  0  0
    0.0000    0.0000    0.0000 C   0  0  0  0  0  0  0  0  0  0  0  0
    0.0000    0.0000    0.0000 C   0  0  0  0  0  0  0  0  0  0  0  0
    0.0000    0.0000    0.0000 C   0  0  0  0  0  0  0  0  0  0  0  0
    0.0000    0.0000    0.0000 O   0  0  0  0  0  0  0  0  0  0  0  0
    0.0000    0.0000    0.0000 C   0  0  0  0  0  0  0  0  0  0  0  0
  1  2  1  0
  2  3  1  0
  3  4  2  0
  4  5  1  0
  5  6  2  0
  6  7  1  0
  7  8  1  0
  8  9  1  0
  9 10  1  0
 10 11  2  0
 11 12  1  0
 12 13  1  0
 12 14  2  0
 14 15  1  0
 15 16  1  0
 15 17  2  0
 17 18  1  0
 18 19  1  0
 19 20  1  0
 19 21  1  0
  6 22  1  0
 22 23  2  0
 23 24  1  0
 24 25  1  0
 23  3  1  0
 18  8  2  0
 17 10  1  0
M  END
>  <pIC50>  (383) 
4.57

>  <ChEMBL_ID>  (383) 
CHEMBL477566

>  <document_journal>  (383) 
J. Med. Chem.

>  <bao_endpoint>  (383) 
BAO_0000190

>  <potential_duplicate>  (383) 
False

>  <uo_units>  (383) 
UO_0000065

>  <canonical_smiles>  (383) 
COc1ccc(Sc2[nH]c3nc(N)nc(N)c3c2C(C)C)cc1OC

>  <parent_molecule_chembl_id>  (383) 
CHEMBL477566

>  <assay_type>  (383) 
B

>  <src_id>  (383) 
1

>  <ligand_efficiency>  (383) 
{u'le': u'0.25', u'bei': u'12.71', u'sei': u'3.33', u'lle': u'1.05'}

>  <standard_flag>  (383) 
True

>  <molecule_chembl_id>  (383) 
CHEMBL477566

>  <target_organism>  (383) 
Homo sapiens

>  <standard_units>  (383) 
nM

>  <record_id>  (383) 
770644

>  <document_chembl_id>  (383) 
CHEMBL1155823

>  <bao_format>  (383) 
BAO_0000357

>  <data_validity_description>  (383) 
None

>  <activity_id>  (383) 
2559259

>  <standard_type>  (383) 
IC50

>  <target_chembl_id>  (383) 
CHEMBL202

>  <data_validity_comment>  (383) 
None

>  <published_value>  (383) 
27

>  <document_year>  (383) 
2008

>  <target_pref_name>  (383) 
Dihydrofolate reductase

>  <assay_chembl_id>  (383) 
CHEMBL983757

>  <standard_relation>  (383) 
=

>  <assay_description>  (383) 
Inhibition of human dihydrofolate reductase

>  <published_relation>  (383) 
=

>  <standard_value>  (383) 
27000

>  <qudt_units>  (383) 
http://www.openphacts.org/units/Nanomolar

>  <target_tax_id>  (383) 
9606

>  <bao_label>  (383) 
single protein format

>  <published_units>  (383) 
uM

>  <pchembl_value>  (383) 
4.57

>  <published_type>  (383) 
IC50

>  <activity_comment>  (383) 
None

$$$$

     RDKit          

 23 25  0  0  0  0  0  0  0  0999 V2000
    0.0000    0.0000    0.0000 C   0  0  0  0  0  0  0  0  0  0  0  0
    0.0000    0.0000    0.0000 O   0  0  0  0  0  0  0  0  0  0  0  0
    0.0000    0.0000    0.0000 C   0  0  0  0  0  0  0  0  0  0  0  0
    0.0000    0.0000    0.0000 C   0  0  0  0  0  0  0  0  0  0  0  0
    0.0000    0.0000    0.0000 C   0  0  0  0  0  0  0  0  0  0  0  0
    0.0000    0.0000    0.0000 C   0  0  0  0  0  0  0  0  0  0  0  0
    0.0000    0.0000    0.0000 S   0  0  0  0  0  0  0  0  0  0  0  0
    0.0000    0.0000    0.0000 C   0  0  0  0  0  0  0  0  0  0  0  0
    0.0000    0.0000    0.0000 N   0  0  0  0  0  0  0  0  0  0  0  0
    0.0000    0.0000    0.0000 C   0  0  0  0  0  0  0  0  0  0  0  0
    0.0000    0.0000    0.0000 N   0  0  0  0  0  0  0  0  0  0  0  0
    0.0000    0.0000    0.0000 C   0  0  0  0  0  0  0  0  0  0  0  0
    0.0000    0.0000    0.0000 N   0  0  0  0  0  0  0  0  0  0  0  0
    0.0000    0.0000    0.0000 N   0  0  0  0  0  0  0  0  0  0  0  0
    0.0000    0.0000    0.0000 C   0  0  0  0  0  0  0  0  0  0  0  0
    0.0000    0.0000    0.0000 N   0  0  0  0  0  0  0  0  0  0  0  0
    0.0000    0.0000    0.0000 C   0  0  0  0  0  0  0  0  0  0  0  0
    0.0000    0.0000    0.0000 C   0  0  0  0  0  0  0  0  0  0  0  0
    0.0000    0.0000    0.0000 C   0  0  0  0  0  0  0  0  0  0  0  0
    0.0000    0.0000    0.0000 C   0  0  0  0  0  0  0  0  0  0  0  0
    0.0000    0.0000    0.0000 C   0  0  0  0  0  0  0  0  0  0  0  0
    0.0000    0.0000    0.0000 C   0  0  0  0  0  0  0  0  0  0  0  0
    0.0000    0.0000    0.0000 C   0  0  0  0  0  0  0  0  0  0  0  0
  1  2  1  0
  2  3  1  0
  3  4  2  0
  4  5  1  0
  5  6  2  0
  6  7  1  0
  7  8  1  0
  8  9  1  0
  9 10  1  0
 10 11  2  0
 11 12  1  0
 12 13  1  0
 12 14  2  0
 14 15  1  0
 15 16  1  0
 15 17  2  0
 17 18  1  0
 18 19  1  0
 19 20  1  0
 19 21  1  0
  6 22  1  0
 22 23  2  0
 23  3  1  0
 18  8  2  0
 17 10  1  0
M  END
>  <pIC50>  (384) 
4.52

>  <ChEMBL_ID>  (384) 
CHEMBL478404

>  <document_journal>  (384) 
J. Med. Chem.

>  <bao_endpoint>  (384) 
BAO_0000190

>  <potential_duplicate>  (384) 
False

>  <uo_units>  (384) 
UO_0000065

>  <canonical_smiles>  (384) 
COc1ccc(Sc2[nH]c3nc(N)nc(N)c3c2C(C)C)cc1

>  <parent_molecule_chembl_id>  (384) 
CHEMBL478404

>  <assay_type>  (384) 
B

>  <src_id>  (384) 
1

>  <ligand_efficiency>  (384) 
{u'le': u'0.27', u'bei': u'13.73', u'sei': u'3.53', u'lle': u'0.99'}

>  <standard_flag>  (384) 
True

>  <molecule_chembl_id>  (384) 
CHEMBL478404

>  <target_organism>  (384) 
Homo sapiens

>  <standard_units>  (384) 
nM

>  <record_id>  (384) 
770642

>  <document_chembl_id>  (384) 
CHEMBL1155823

>  <bao_format>  (384) 
BAO_0000357

>  <data_validity_description>  (384) 
None

>  <activity_id>  (384) 
2559261

>  <standard_type>  (384) 
IC50

>  <target_chembl_id>  (384) 
CHEMBL202

>  <data_validity_comment>  (384) 
None

>  <published_value>  (384) 
30

>  <document_year>  (384) 
2008

>  <target_pref_name>  (384) 
Dihydrofolate reductase

>  <assay_chembl_id>  (384) 
CHEMBL983757

>  <standard_relation>  (384) 
=

>  <assay_description>  (384) 
Inhibition of human dihydrofolate reductase

>  <published_relation>  (384) 
=

>  <standard_value>  (384) 
30000

>  <qudt_units>  (384) 
http://www.openphacts.org/units/Nanomolar

>  <target_tax_id>  (384) 
9606

>  <bao_label>  (384) 
single protein format

>  <published_units>  (384) 
uM

>  <pchembl_value>  (384) 
4.52

>  <published_type>  (384) 
IC50

>  <activity_comment>  (384) 
None

$$$$

     RDKit          

 21 23  0  0  0  0  0  0  0  0999 V2000
    0.0000    0.0000    0.0000 C   0  0  0  0  0  0  0  0  0  0  0  0
    0.0000    0.0000    0.0000 C   0  0  0  0  0  0  0  0  0  0  0  0
    0.0000    0.0000    0.0000 C   0  0  0  0  0  0  0  0  0  0  0  0
    0.0000    0.0000    0.0000 C   0  0  0  0  0  0  0  0  0  0  0  0
    0.0000    0.0000    0.0000 C   0  0  0  0  0  0  0  0  0  0  0  0
    0.0000    0.0000    0.0000 S   0  0  0  0  0  0  0  0  0  0  0  0
    0.0000    0.0000    0.0000 C   0  0  0  0  0  0  0  0  0  0  0  0
    0.0000    0.0000    0.0000 C   0  0  0  0  0  0  0  0  0  0  0  0
    0.0000    0.0000    0.0000 C   0  0  0  0  0  0  0  0  0  0  0  0
    0.0000    0.0000    0.0000 C   0  0  0  0  0  0  0  0  0  0  0  0
    0.0000    0.0000    0.0000 C   0  0  0  0  0  0  0  0  0  0  0  0
    0.0000    0.0000    0.0000 C   0  0  0  0  0  0  0  0  0  0  0  0
    0.0000    0.0000    0.0000 N   0  0  0  0  0  0  0  0  0  0  0  0
    0.0000    0.0000    0.0000 C   0  0  0  0  0  0  0  0  0  0  0  0
    0.0000    0.0000    0.0000 N   0  0  0  0  0  0  0  0  0  0  0  0
    0.0000    0.0000    0.0000 C   0  0  0  0  0  0  0  0  0  0  0  0
    0.0000    0.0000    0.0000 N   0  0  0  0  0  0  0  0  0  0  0  0
    0.0000    0.0000    0.0000 N   0  0  0  0  0  0  0  0  0  0  0  0
    0.0000    0.0000    0.0000 C   0  0  0  0  0  0  0  0  0  0  0  0
    0.0000    0.0000    0.0000 N   0  0  0  0  0  0  0  0  0  0  0  0
    0.0000    0.0000    0.0000 C   0  0  0  0  0  0  0  0  0  0  0  0
  1  2  1  0
  2  3  1  0
  2  4  1  0
  4  5  2  0
  5  6  1  0
  6  7  1  0
  7  8  2  0
  8  9  1  0
  9 10  2  0
 10 11  1  0
 11 12  2  0
  5 13  1  0
 13 14  1  0
 14 15  2  0
 15 16  1  0
 16 17  1  0
 16 18  2  0
 18 19  1  0
 19 20  1  0
 19 21  2  0
 21  4  1  0
 12  7  1  0
 21 14  1  0
M  END
>  <pIC50>  (385) 
4.8

>  <ChEMBL_ID>  (385) 
CHEMBL478403

>  <document_journal>  (385) 
J. Med. Chem.

>  <bao_endpoint>  (385) 
BAO_0000190

>  <potential_duplicate>  (385) 
False

>  <uo_units>  (385) 
UO_0000065

>  <canonical_smiles>  (385) 
CC(C)c1c(Sc2ccccc2)[nH]c3nc(N)nc(N)c13

>  <parent_molecule_chembl_id>  (385) 
CHEMBL478403

>  <assay_type>  (385) 
B

>  <src_id>  (385) 
1

>  <ligand_efficiency>  (385) 
{u'le': u'0.31', u'bei': u'16.02', u'sei': u'4.03', u'lle': u'1.25'}

>  <standard_flag>  (385) 
True

>  <molecule_chembl_id>  (385) 
CHEMBL478403

>  <target_organism>  (385) 
Homo sapiens

>  <standard_units>  (385) 
nM

>  <record_id>  (385) 
770641

>  <document_chembl_id>  (385) 
CHEMBL1155823

>  <bao_format>  (385) 
BAO_0000357

>  <data_validity_description>  (385) 
None

>  <activity_id>  (385) 
2559262

>  <standard_type>  (385) 
IC50

>  <target_chembl_id>  (385) 
CHEMBL202

>  <data_validity_comment>  (385) 
None

>  <published_value>  (385) 
16

>  <document_year>  (385) 
2008

>  <target_pref_name>  (385) 
Dihydrofolate reductase

>  <assay_chembl_id>  (385) 
CHEMBL983757

>  <standard_relation>  (385) 
=

>  <assay_description>  (385) 
Inhibition of human dihydrofolate reductase

>  <published_relation>  (385) 
=

>  <standard_value>  (385) 
16000

>  <qudt_units>  (385) 
http://www.openphacts.org/units/Nanomolar

>  <target_tax_id>  (385) 
9606

>  <bao_label>  (385) 
single protein format

>  <published_units>  (385) 
uM

>  <pchembl_value>  (385) 
4.8

>  <published_type>  (385) 
IC50

>  <activity_comment>  (385) 
None

$$$$

     RDKit          

 25 27  0  0  0  0  0  0  0  0999 V2000
    0.0000    0.0000    0.0000 C   0  0  0  0  0  0  0  0  0  0  0  0
    0.0000    0.0000    0.0000 C   0  0  0  0  0  0  0  0  0  0  0  0
    0.0000    0.0000    0.0000 C   0  0  0  0  0  0  0  0  0  0  0  0
    0.0000    0.0000    0.0000 C   0  0  0  0  0  0  0  0  0  0  0  0
    0.0000    0.0000    0.0000 C   0  0  0  0  0  0  0  0  0  0  0  0
    0.0000    0.0000    0.0000 S   0  0  0  0  0  0  0  0  0  0  0  0
    0.0000    0.0000    0.0000 C   0  0  0  0  0  0  0  0  0  0  0  0
    0.0000    0.0000    0.0000 C   0  0  0  0  0  0  0  0  0  0  0  0
    0.0000    0.0000    0.0000 C   0  0  0  0  0  0  0  0  0  0  0  0
    0.0000    0.0000    0.0000 O   0  0  0  0  0  0  0  0  0  0  0  0
    0.0000    0.0000    0.0000 C   0  0  0  0  0  0  0  0  0  0  0  0
    0.0000    0.0000    0.0000 C   0  0  0  0  0  0  0  0  0  0  0  0
    0.0000    0.0000    0.0000 C   0  0  0  0  0  0  0  0  0  0  0  0
    0.0000    0.0000    0.0000 C   0  0  0  0  0  0  0  0  0  0  0  0
    0.0000    0.0000    0.0000 O   0  0  0  0  0  0  0  0  0  0  0  0
    0.0000    0.0000    0.0000 C   0  0  0  0  0  0  0  0  0  0  0  0
    0.0000    0.0000    0.0000 N   0  0  0  0  0  0  0  0  0  0  0  0
    0.0000    0.0000    0.0000 C   0  0  0  0  0  0  0  0  0  0  0  0
    0.0000    0.0000    0.0000 N   0  0  0  0  0  0  0  0  0  0  0  0
    0.0000    0.0000    0.0000 C   0  0  0  0  0  0  0  0  0  0  0  0
    0.0000    0.0000    0.0000 N   0  0  0  0  0  0  0  0  0  0  0  0
    0.0000    0.0000    0.0000 N   0  0  0  0  0  0  0  0  0  0  0  0
    0.0000    0.0000    0.0000 C   0  0  0  0  0  0  0  0  0  0  0  0
    0.0000    0.0000    0.0000 N   0  0  0  0  0  0  0  0  0  0  0  0
    0.0000    0.0000    0.0000 C   0  0  0  0  0  0  0  0  0  0  0  0
  1  2  1  0
  2  3  1  0
  3  4  1  0
  4  5  2  0
  5  6  1  0
  6  7  1  0
  7  8  2  0
  8  9  1  0
  9 10  1  0
 10 11  1  0
  9 12  2  0
 12 13  1  0
 13 14  2  0
 14 15  1  0
 15 16  1  0
  5 17  1  0
 17 18  1  0
 18 19  2  0
 19 20  1  0
 20 21  1  0
 20 22  2  0
 22 23  1  0
 23 24  1  0
 23 25  2  0
 25  4  1  0
 14  7  1  0
 25 18  1  0
M  END
>  <pIC50>  (386) 
4.55

>  <ChEMBL_ID>  (386) 
CHEMBL476744

>  <document_journal>  (386) 
J. Med. Chem.

>  <bao_endpoint>  (386) 
BAO_0000190

>  <potential_duplicate>  (386) 
False

>  <uo_units>  (386) 
UO_0000065

>  <canonical_smiles>  (386) 
CCCc1c(Sc2cc(OC)ccc2OC)[nH]c3nc(N)nc(N)c13

>  <parent_molecule_chembl_id>  (386) 
CHEMBL476744

>  <assay_type>  (386) 
B

>  <src_id>  (386) 
1

>  <ligand_efficiency>  (386) 
{u'le': u'0.25', u'bei': u'12.67', u'sei': u'3.31', u'lle': u'0.83'}

>  <standard_flag>  (386) 
True

>  <molecule_chembl_id>  (386) 
CHEMBL476744

>  <target_organism>  (386) 
Homo sapiens

>  <standard_units>  (386) 
nM

>  <record_id>  (386) 
770350

>  <document_chembl_id>  (386) 
CHEMBL1155823

>  <bao_format>  (386) 
BAO_0000357

>  <data_validity_description>  (386) 
None

>  <activity_id>  (386) 
2559268

>  <standard_type>  (386) 
IC50

>  <target_chembl_id>  (386) 
CHEMBL202

>  <data_validity_comment>  (386) 
None

>  <published_value>  (386) 
28

>  <document_year>  (386) 
2008

>  <target_pref_name>  (386) 
Dihydrofolate reductase

>  <assay_chembl_id>  (386) 
CHEMBL983757

>  <standard_relation>  (386) 
=

>  <assay_description>  (386) 
Inhibition of human dihydrofolate reductase

>  <published_relation>  (386) 
=

>  <standard_value>  (386) 
28000

>  <qudt_units>  (386) 
http://www.openphacts.org/units/Nanomolar

>  <target_tax_id>  (386) 
9606

>  <bao_label>  (386) 
single protein format

>  <published_units>  (386) 
uM

>  <pchembl_value>  (386) 
4.55

>  <published_type>  (386) 
IC50

>  <activity_comment>  (386) 
None

$$$$

     RDKit          

 21 23  0  0  0  0  0  0  0  0999 V2000
    0.0000    0.0000    0.0000 C   0  0  0  0  0  0  0  0  0  0  0  0
    0.0000    0.0000    0.0000 C   0  0  0  0  0  0  0  0  0  0  0  0
    0.0000    0.0000    0.0000 C   0  0  0  0  0  0  0  0  0  0  0  0
    0.0000    0.0000    0.0000 C   0  0  0  0  0  0  0  0  0  0  0  0
    0.0000    0.0000    0.0000 C   0  0  0  0  0  0  0  0  0  0  0  0
    0.0000    0.0000    0.0000 S   0  0  0  0  0  0  0  0  0  0  0  0
    0.0000    0.0000    0.0000 C   0  0  0  0  0  0  0  0  0  0  0  0
    0.0000    0.0000    0.0000 C   0  0  0  0  0  0  0  0  0  0  0  0
    0.0000    0.0000    0.0000 C   0  0  0  0  0  0  0  0  0  0  0  0
    0.0000    0.0000    0.0000 C   0  0  0  0  0  0  0  0  0  0  0  0
    0.0000    0.0000    0.0000 C   0  0  0  0  0  0  0  0  0  0  0  0
    0.0000    0.0000    0.0000 C   0  0  0  0  0  0  0  0  0  0  0  0
    0.0000    0.0000    0.0000 N   0  0  0  0  0  0  0  0  0  0  0  0
    0.0000    0.0000    0.0000 C   0  0  0  0  0  0  0  0  0  0  0  0
    0.0000    0.0000    0.0000 N   0  0  0  0  0  0  0  0  0  0  0  0
    0.0000    0.0000    0.0000 C   0  0  0  0  0  0  0  0  0  0  0  0
    0.0000    0.0000    0.0000 N   0  0  0  0  0  0  0  0  0  0  0  0
    0.0000    0.0000    0.0000 N   0  0  0  0  0  0  0  0  0  0  0  0
    0.0000    0.0000    0.0000 C   0  0  0  0  0  0  0  0  0  0  0  0
    0.0000    0.0000    0.0000 N   0  0  0  0  0  0  0  0  0  0  0  0
    0.0000    0.0000    0.0000 C   0  0  0  0  0  0  0  0  0  0  0  0
  1  2  1  0
  2  3  1  0
  3  4  1  0
  4  5  2  0
  5  6  1  0
  6  7  1  0
  7  8  2  0
  8  9  1  0
  9 10  2  0
 10 11  1  0
 11 12  2  0
  5 13  1  0
 13 14  1  0
 14 15  2  0
 15 16  1  0
 16 17  1  0
 16 18  2  0
 18 19  1  0
 19 20  1  0
 19 21  2  0
 21  4  1  0
 12  7  1  0
 21 14  1  0
M  END
>  <pIC50>  (387) 
4.48

>  <ChEMBL_ID>  (387) 
CHEMBL516891

>  <document_journal>  (387) 
J. Med. Chem.

>  <bao_endpoint>  (387) 
BAO_0000190

>  <potential_duplicate>  (387) 
False

>  <uo_units>  (387) 
UO_0000065

>  <canonical_smiles>  (387) 
CCCc1c(Sc2ccccc2)[nH]c3nc(N)nc(N)c13

>  <parent_molecule_chembl_id>  (387) 
CHEMBL516891

>  <assay_type>  (387) 
B

>  <src_id>  (387) 
1

>  <ligand_efficiency>  (387) 
{u'le': u'0.29', u'bei': u'14.97', u'sei': u'3.77', u'lle': u'0.73'}

>  <standard_flag>  (387) 
True

>  <molecule_chembl_id>  (387) 
CHEMBL516891

>  <target_organism>  (387) 
Homo sapiens

>  <standard_units>  (387) 
nM

>  <record_id>  (387) 
770348

>  <document_chembl_id>  (387) 
CHEMBL1155823

>  <bao_format>  (387) 
BAO_0000357

>  <data_validity_description>  (387) 
None

>  <activity_id>  (387) 
2559270

>  <standard_type>  (387) 
IC50

>  <target_chembl_id>  (387) 
CHEMBL202

>  <data_validity_comment>  (387) 
None

>  <published_value>  (387) 
33

>  <document_year>  (387) 
2008

>  <target_pref_name>  (387) 
Dihydrofolate reductase

>  <assay_chembl_id>  (387) 
CHEMBL983757

>  <standard_relation>  (387) 
=

>  <assay_description>  (387) 
Inhibition of human dihydrofolate reductase

>  <published_relation>  (387) 
=

>  <standard_value>  (387) 
33000

>  <qudt_units>  (387) 
http://www.openphacts.org/units/Nanomolar

>  <target_tax_id>  (387) 
9606

>  <bao_label>  (387) 
single protein format

>  <published_units>  (387) 
uM

>  <pchembl_value>  (387) 
4.48

>  <published_type>  (387) 
IC50

>  <activity_comment>  (387) 
None

$$$$

     RDKit          

 23 25  0  0  0  0  0  0  0  0999 V2000
    0.0000    0.0000    0.0000 C   0  0  0  0  0  0  0  0  0  0  0  0
    0.0000    0.0000    0.0000 C   0  0  0  0  0  0  0  0  0  0  0  0
    0.0000    0.0000    0.0000 C   0  0  0  0  0  0  0  0  0  0  0  0
    0.0000    0.0000    0.0000 C   0  0  0  0  0  0  0  0  0  0  0  0
    0.0000    0.0000    0.0000 C   0  0  0  0  0  0  0  0  0  0  0  0
    0.0000    0.0000    0.0000 S   0  0  0  0  0  0  0  0  0  0  0  0
    0.0000    0.0000    0.0000 C   0  0  0  0  0  0  0  0  0  0  0  0
    0.0000    0.0000    0.0000 C   0  0  0  0  0  0  0  0  0  0  0  0
    0.0000    0.0000    0.0000 C   0  0  0  0  0  0  0  0  0  0  0  0
    0.0000    0.0000    0.0000 C   0  0  0  0  0  0  0  0  0  0  0  0
    0.0000    0.0000    0.0000 C   0  0  0  0  0  0  0  0  0  0  0  0
    0.0000    0.0000    0.0000 C   0  0  0  0  0  0  0  0  0  0  0  0
    0.0000    0.0000    0.0000 C   0  0  0  0  0  0  0  0  0  0  0  0
    0.0000    0.0000    0.0000 C   0  0  0  0  0  0  0  0  0  0  0  0
    0.0000    0.0000    0.0000 N   0  0  0  0  0  0  0  0  0  0  0  0
    0.0000    0.0000    0.0000 C   0  0  0  0  0  0  0  0  0  0  0  0
    0.0000    0.0000    0.0000 N   0  0  0  0  0  0  0  0  0  0  0  0
    0.0000    0.0000    0.0000 C   0  0  0  0  0  0  0  0  0  0  0  0
    0.0000    0.0000    0.0000 N   0  0  0  0  0  0  0  0  0  0  0  0
    0.0000    0.0000    0.0000 N   0  0  0  0  0  0  0  0  0  0  0  0
    0.0000    0.0000    0.0000 C   0  0  0  0  0  0  0  0  0  0  0  0
    0.0000    0.0000    0.0000 N   0  0  0  0  0  0  0  0  0  0  0  0
    0.0000    0.0000    0.0000 C   0  0  0  0  0  0  0  0  0  0  0  0
  1  2  1  0
  2  3  1  0
  3  4  1  0
  4  5  2  0
  5  6  1  0
  6  7  1  0
  7  8  2  0
  8  9  1  0
  8 10  1  0
 10 11  2  0
 11 12  1  0
 12 13  2  0
 13 14  1  0
  5 15  1  0
 15 16  1  0
 16 17  2  0
 17 18  1  0
 18 19  1  0
 18 20  2  0
 20 21  1  0
 21 22  1  0
 21 23  2  0
 23  4  1  0
 13  7  1  0
 23 16  1  0
M  END
>  <pIC50>  (388) 
5.52

>  <ChEMBL_ID>  (388) 
CHEMBL477789

>  <document_journal>  (388) 
J. Med. Chem.

>  <bao_endpoint>  (388) 
BAO_0000190

>  <potential_duplicate>  (388) 
False

>  <uo_units>  (388) 
UO_0000065

>  <canonical_smiles>  (388) 
CCCc1c(Sc2c(C)cccc2C)[nH]c3nc(N)nc(N)c13

>  <parent_molecule_chembl_id>  (388) 
CHEMBL477789

>  <assay_type>  (388) 
B

>  <src_id>  (388) 
1

>  <ligand_efficiency>  (388) 
{u'le': u'0.33', u'bei': u'16.87', u'sei': u'4.64', u'lle': u'0.8'}

>  <standard_flag>  (388) 
True

>  <molecule_chembl_id>  (388) 
CHEMBL477789

>  <target_organism>  (388) 
Homo sapiens

>  <standard_units>  (388) 
nM

>  <record_id>  (388) 
770347

>  <document_chembl_id>  (388) 
CHEMBL1155823

>  <bao_format>  (388) 
BAO_0000357

>  <data_validity_description>  (388) 
None

>  <activity_id>  (388) 
2559271

>  <standard_type>  (388) 
IC50

>  <target_chembl_id>  (388) 
CHEMBL202

>  <data_validity_comment>  (388) 
None

>  <published_value>  (388) 
3

>  <document_year>  (388) 
2008

>  <target_pref_name>  (388) 
Dihydrofolate reductase

>  <assay_chembl_id>  (388) 
CHEMBL983757

>  <standard_relation>  (388) 
=

>  <assay_description>  (388) 
Inhibition of human dihydrofolate reductase

>  <published_relation>  (388) 
=

>  <standard_value>  (388) 
3000

>  <qudt_units>  (388) 
http://www.openphacts.org/units/Nanomolar

>  <target_tax_id>  (388) 
9606

>  <bao_label>  (388) 
single protein format

>  <published_units>  (388) 
uM

>  <pchembl_value>  (388) 
5.52

>  <published_type>  (388) 
IC50

>  <activity_comment>  (388) 
None

$$$$

     RDKit          

 32 34  0  0  0  0  0  0  0  0999 V2000
    0.0000    0.0000    0.0000 C   0  0  0  0  0  0  0  0  0  0  0  0
    0.0000    0.0000    0.0000 C   0  0  0  0  0  0  0  0  0  0  0  0
    0.0000    0.0000    0.0000 C   0  0  0  0  0  0  0  0  0  0  0  0
    0.0000    0.0000    0.0000 S   0  0  0  0  0  0  0  0  0  0  0  0
    0.0000    0.0000    0.0000 C   0  0  0  0  0  0  0  0  0  0  0  0
    0.0000    0.0000    0.0000 N   0  0  0  0  0  0  0  0  0  0  0  0
    0.0000    0.0000    0.0000 C   0  0  0  0  0  0  0  0  0  0  0  0
    0.0000    0.0000    0.0000 N   0  0  0  0  0  0  0  0  0  0  0  0
    0.0000    0.0000    0.0000 N   0  0  0  0  0  0  0  0  0  0  0  0
    0.0000    0.0000    0.0000 C   0  0  0  0  0  0  0  0  0  0  0  0
    0.0000    0.0000    0.0000 O   0  0  0  0  0  0  0  0  0  0  0  0
    0.0000    0.0000    0.0000 C   0  0  0  0  0  0  0  0  0  0  0  0
    0.0000    0.0000    0.0000 C   0  0  0  0  0  0  0  0  0  0  0  0
    0.0000    0.0000    0.0000 S   0  0  0  0  0  0  0  0  0  0  0  0
    0.0000    0.0000    0.0000 C   0  0  0  0  0  0  0  0  0  0  0  0
    0.0000    0.0000    0.0000 C   0  0  0  0  0  0  0  0  0  0  0  0
    0.0000    0.0000    0.0000 C   0  0  0  0  0  0  0  0  0  0  0  0
    0.0000    0.0000    0.0000 C   0  0  0  0  0  0  0  0  0  0  0  0
    0.0000    0.0000    0.0000 C   0  0  0  0  0  0  0  0  0  0  0  0
    0.0000    0.0000    0.0000 C   0  0  0  0  0  0  0  0  0  0  0  0
    0.0000    0.0000    0.0000 C   0  0  0  0  0  0  0  0  0  0  0  0
    0.0000    0.0000    0.0000 O   0  0  0  0  0  0  0  0  0  0  0  0
    0.0000    0.0000    0.0000 N   0  0  0  0  0  0  0  0  0  0  0  0
    0.0000    0.0000    0.0000 C   0  0  0  0  0  0  0  0  0  0  0  0
    0.0000    0.0000    0.0000 C   0  0  0  0  0  0  0  0  0  0  0  0
    0.0000    0.0000    0.0000 C   0  0  0  0  0  0  0  0  0  0  0  0
    0.0000    0.0000    0.0000 C   0  0  0  0  0  0  0  0  0  0  0  0
    0.0000    0.0000    0.0000 O   0  0  0  0  0  0  0  0  0  0  0  0
    0.0000    0.0000    0.0000 O   0  0  0  0  0  0  0  0  0  0  0  0
    0.0000    0.0000    0.0000 C   0  0  0  0  0  0  0  0  0  0  0  0
    0.0000    0.0000    0.0000 O   0  0  0  0  0  0  0  0  0  0  0  0
    0.0000    0.0000    0.0000 O   0  0  0  0  0  0  0  0  0  0  0  0
  1  2  1  0
  2  3  1  0
  3  4  1  0
  4  5  1  0
  5  6  1  0
  6  7  2  0
  7  8  1  0
  7  9  1  0
  9 10  1  0
 10 11  2  0
 10 12  1  0
 12 13  1  0
 13 14  1  0
 14 15  1  0
 15 16  2  0
 16 17  1  0
 17 18  2  0
 18 19  1  0
 19 20  2  0
 18 21  1  0
 21 22  2  0
 21 23  1  0
 23 24  1  0
 24 25  1  0
 25 26  1  0
 26 27  1  0
 27 28  2  0
 27 29  1  0
 24 30  1  0
 30 31  2  0
 30 32  1  0
 13  3  2  0
 12  5  2  0
 20 15  1  0
M  END
>  <pIC50>  (389) 
7.72

>  <ChEMBL_ID>  (389) 
CHEMBL551049

>  <document_journal>  (389) 
J. Med. Chem.

>  <bao_endpoint>  (389) 
BAO_0000190

>  <potential_duplicate>  (389) 
False

>  <uo_units>  (389) 
UO_0000065

>  <canonical_smiles>  (389) 
CCc1sc2N=C(N)NC(=O)c2c1Sc3ccc(cc3)C(=O)N[C@@H](CCC(=O)O)C(=O)O

>  <parent_molecule_chembl_id>  (389) 
CHEMBL551049

>  <assay_type>  (389) 
B

>  <src_id>  (389) 
1

>  <ligand_efficiency>  (389) 
{u'le': u'0.33', u'bei': u'16.2', u'sei': u'3.44', u'lle': u'5.51'}

>  <standard_flag>  (389) 
True

>  <molecule_chembl_id>  (389) 
CHEMBL551049

>  <target_organism>  (389) 
Homo sapiens

>  <standard_units>  (389) 
nM

>  <record_id>  (389) 
821471

>  <document_chembl_id>  (389) 
CHEMBL1151945

>  <bao_format>  (389) 
BAO_0000357

>  <data_validity_description>  (389) 
None

>  <activity_id>  (389) 
2677898

>  <standard_type>  (389) 
IC50

>  <target_chembl_id>  (389) 
CHEMBL202

>  <data_validity_comment>  (389) 
None

>  <published_value>  (389) 
0.019

>  <document_year>  (389) 
2009

>  <target_pref_name>  (389) 
Dihydrofolate reductase

>  <assay_chembl_id>  (389) 
CHEMBL1062969

>  <standard_relation>  (389) 
=

>  <assay_description>  (389) 
Inhibition of human recombinant dihydrofolate reductase

>  <published_relation>  (389) 
=

>  <standard_value>  (389) 
19

>  <qudt_units>  (389) 
http://www.openphacts.org/units/Nanomolar

>  <target_tax_id>  (389) 
9606

>  <bao_label>  (389) 
single protein format

>  <published_units>  (389) 
uM

>  <pchembl_value>  (389) 
7.72

>  <published_type>  (389) 
IC50

>  <activity_comment>  (389) 
None

$$$$

     RDKit          

 20 22  0  0  0  0  0  0  0  0999 V2000
    0.0000    0.0000    0.0000 C   0  0  0  0  0  0  0  0  0  0  0  0
    0.0000    0.0000    0.0000 C   0  0  0  0  0  0  0  0  0  0  0  0
    0.0000    0.0000    0.0000 C   0  0  0  0  0  0  0  0  0  0  0  0
    0.0000    0.0000    0.0000 S   0  0  0  0  0  0  0  0  0  0  0  0
    0.0000    0.0000    0.0000 C   0  0  0  0  0  0  0  0  0  0  0  0
    0.0000    0.0000    0.0000 N   0  0  0  0  0  0  0  0  0  0  0  0
    0.0000    0.0000    0.0000 C   0  0  0  0  0  0  0  0  0  0  0  0
    0.0000    0.0000    0.0000 N   0  0  0  0  0  0  0  0  0  0  0  0
    0.0000    0.0000    0.0000 N   0  0  0  0  0  0  0  0  0  0  0  0
    0.0000    0.0000    0.0000 C   0  0  0  0  0  0  0  0  0  0  0  0
    0.0000    0.0000    0.0000 O   0  0  0  0  0  0  0  0  0  0  0  0
    0.0000    0.0000    0.0000 C   0  0  0  0  0  0  0  0  0  0  0  0
    0.0000    0.0000    0.0000 C   0  0  0  0  0  0  0  0  0  0  0  0
    0.0000    0.0000    0.0000 S   0  0  0  0  0  0  0  0  0  0  0  0
    0.0000    0.0000    0.0000 C   0  0  0  0  0  0  0  0  0  0  0  0
    0.0000    0.0000    0.0000 C   0  0  0  0  0  0  0  0  0  0  0  0
    0.0000    0.0000    0.0000 C   0  0  0  0  0  0  0  0  0  0  0  0
    0.0000    0.0000    0.0000 C   0  0  0  0  0  0  0  0  0  0  0  0
    0.0000    0.0000    0.0000 C   0  0  0  0  0  0  0  0  0  0  0  0
    0.0000    0.0000    0.0000 C   0  0  0  0  0  0  0  0  0  0  0  0
  1  2  1  0
  2  3  1  0
  3  4  1  0
  4  5  1  0
  5  6  1  0
  6  7  2  0
  7  8  1  0
  7  9  1  0
  9 10  1  0
 10 11  2  0
 10 12  1  0
 12 13  1  0
 13 14  1  0
 14 15  1  0
 15 16  2  0
 16 17  1  0
 17 18  2  0
 18 19  1  0
 19 20  2  0
 13  3  2  0
 12  5  2  0
 20 15  1  0
M  END
>  <pIC50>  (390) 
5.59

>  <ChEMBL_ID>  (390) 
CHEMBL550769

>  <document_journal>  (390) 
J. Med. Chem.

>  <bao_endpoint>  (390) 
BAO_0000190

>  <potential_duplicate>  (390) 
False

>  <uo_units>  (390) 
UO_0000065

>  <canonical_smiles>  (390) 
CCc1sc2N=C(N)NC(=O)c2c1Sc3ccccc3

>  <parent_molecule_chembl_id>  (390) 
CHEMBL550769

>  <assay_type>  (390) 
B

>  <src_id>  (390) 
1

>  <ligand_efficiency>  (390) 
{u'le': u'0.38', u'bei': u'18.41', u'sei': u'4.62', u'lle': u'2.25'}

>  <standard_flag>  (390) 
True

>  <molecule_chembl_id>  (390) 
CHEMBL550769

>  <target_organism>  (390) 
Homo sapiens

>  <standard_units>  (390) 
nM

>  <record_id>  (390) 
821472

>  <document_chembl_id>  (390) 
CHEMBL1151945

>  <bao_format>  (390) 
BAO_0000357

>  <data_validity_description>  (390) 
None

>  <activity_id>  (390) 
2677899

>  <standard_type>  (390) 
IC50

>  <target_chembl_id>  (390) 
CHEMBL202

>  <data_validity_comment>  (390) 
None

>  <published_value>  (390) 
2.6

>  <document_year>  (390) 
2009

>  <target_pref_name>  (390) 
Dihydrofolate reductase

>  <assay_chembl_id>  (390) 
CHEMBL1062969

>  <standard_relation>  (390) 
=

>  <assay_description>  (390) 
Inhibition of human recombinant dihydrofolate reductase

>  <published_relation>  (390) 
=

>  <standard_value>  (390) 
2600

>  <qudt_units>  (390) 
http://www.openphacts.org/units/Nanomolar

>  <target_tax_id>  (390) 
9606

>  <bao_label>  (390) 
single protein format

>  <published_units>  (390) 
uM

>  <pchembl_value>  (390) 
5.59

>  <published_type>  (390) 
IC50

>  <activity_comment>  (390) 
None

$$$$

     RDKit          

 21 23  0  0  0  0  0  0  0  0999 V2000
    0.0000    0.0000    0.0000 C   0  0  0  0  0  0  0  0  0  0  0  0
    0.0000    0.0000    0.0000 C   0  0  0  0  0  0  0  0  0  0  0  0
    0.0000    0.0000    0.0000 C   0  0  0  0  0  0  0  0  0  0  0  0
    0.0000    0.0000    0.0000 S   0  0  0  0  0  0  0  0  0  0  0  0
    0.0000    0.0000    0.0000 C   0  0  0  0  0  0  0  0  0  0  0  0
    0.0000    0.0000    0.0000 N   0  0  0  0  0  0  0  0  0  0  0  0
    0.0000    0.0000    0.0000 C   0  0  0  0  0  0  0  0  0  0  0  0
    0.0000    0.0000    0.0000 N   0  0  0  0  0  0  0  0  0  0  0  0
    0.0000    0.0000    0.0000 N   0  0  0  0  0  0  0  0  0  0  0  0
    0.0000    0.0000    0.0000 C   0  0  0  0  0  0  0  0  0  0  0  0
    0.0000    0.0000    0.0000 O   0  0  0  0  0  0  0  0  0  0  0  0
    0.0000    0.0000    0.0000 C   0  0  0  0  0  0  0  0  0  0  0  0
    0.0000    0.0000    0.0000 C   0  0  0  0  0  0  0  0  0  0  0  0
    0.0000    0.0000    0.0000 S   0  0  0  0  0  0  0  0  0  0  0  0
    0.0000    0.0000    0.0000 C   0  0  0  0  0  0  0  0  0  0  0  0
    0.0000    0.0000    0.0000 C   0  0  0  0  0  0  0  0  0  0  0  0
    0.0000    0.0000    0.0000 C   0  0  0  0  0  0  0  0  0  0  0  0
    0.0000    0.0000    0.0000 C   0  0  0  0  0  0  0  0  0  0  0  0
    0.0000    0.0000    0.0000 Cl  0  0  0  0  0  0  0  0  0  0  0  0
    0.0000    0.0000    0.0000 C   0  0  0  0  0  0  0  0  0  0  0  0
    0.0000    0.0000    0.0000 C   0  0  0  0  0  0  0  0  0  0  0  0
  1  2  1  0
  2  3  1  0
  3  4  1  0
  4  5  1  0
  5  6  1  0
  6  7  2  0
  7  8  1  0
  7  9  1  0
  9 10  1  0
 10 11  2  0
 10 12  1  0
 12 13  1  0
 13 14  1  0
 14 15  1  0
 15 16  2  0
 16 17  1  0
 17 18  2  0
 18 19  1  0
 18 20  1  0
 20 21  2  0
 13  3  2  0
 12  5  2  0
 21 15  1  0
M  END
>  <pIC50>  (391) 
6.52

>  <ChEMBL_ID>  (391) 
CHEMBL564277

>  <document_journal>  (391) 
J. Med. Chem.

>  <bao_endpoint>  (391) 
BAO_0000190

>  <potential_duplicate>  (391) 
False

>  <uo_units>  (391) 
UO_0000065

>  <canonical_smiles>  (391) 
CCc1sc2N=C(N)NC(=O)c2c1Sc3ccc(Cl)cc3

>  <parent_molecule_chembl_id>  (391) 
CHEMBL564277

>  <assay_type>  (391) 
B

>  <src_id>  (391) 
1

>  <ligand_efficiency>  (391) 
{u'le': u'0.42', u'bei': u'19.31', u'sei': u'5.39', u'lle': u'2.52'}

>  <standard_flag>  (391) 
True

>  <molecule_chembl_id>  (391) 
CHEMBL564277

>  <target_organism>  (391) 
Homo sapiens

>  <standard_units>  (391) 
nM

>  <record_id>  (391) 
821552

>  <document_chembl_id>  (391) 
CHEMBL1151945

>  <bao_format>  (391) 
BAO_0000357

>  <data_validity_description>  (391) 
None

>  <activity_id>  (391) 
2677900

>  <standard_type>  (391) 
IC50

>  <target_chembl_id>  (391) 
CHEMBL202

>  <data_validity_comment>  (391) 
None

>  <published_value>  (391) 
0.3

>  <document_year>  (391) 
2009

>  <target_pref_name>  (391) 
Dihydrofolate reductase

>  <assay_chembl_id>  (391) 
CHEMBL1062969

>  <standard_relation>  (391) 
=

>  <assay_description>  (391) 
Inhibition of human recombinant dihydrofolate reductase

>  <published_relation>  (391) 
=

>  <standard_value>  (391) 
300

>  <qudt_units>  (391) 
http://www.openphacts.org/units/Nanomolar

>  <target_tax_id>  (391) 
9606

>  <bao_label>  (391) 
single protein format

>  <published_units>  (391) 
uM

>  <pchembl_value>  (391) 
6.52

>  <published_type>  (391) 
IC50

>  <activity_comment>  (391) 
None

$$$$

     RDKit          

 23 25  0  0  0  0  0  0  0  0999 V2000
    0.0000    0.0000    0.0000 C   0  0  0  0  0  0  0  0  0  0  0  0
    0.0000    0.0000    0.0000 C   0  0  0  0  0  0  0  0  0  0  0  0
    0.0000    0.0000    0.0000 C   0  0  0  0  0  0  0  0  0  0  0  0
    0.0000    0.0000    0.0000 S   0  0  0  0  0  0  0  0  0  0  0  0
    0.0000    0.0000    0.0000 C   0  0  0  0  0  0  0  0  0  0  0  0
    0.0000    0.0000    0.0000 N   0  0  0  0  0  0  0  0  0  0  0  0
    0.0000    0.0000    0.0000 C   0  0  0  0  0  0  0  0  0  0  0  0
    0.0000    0.0000    0.0000 N   0  0  0  0  0  0  0  0  0  0  0  0
    0.0000    0.0000    0.0000 N   0  0  0  0  0  0  0  0  0  0  0  0
    0.0000    0.0000    0.0000 C   0  0  0  0  0  0  0  0  0  0  0  0
    0.0000    0.0000    0.0000 O   0  0  0  0  0  0  0  0  0  0  0  0
    0.0000    0.0000    0.0000 C   0  0  0  0  0  0  0  0  0  0  0  0
    0.0000    0.0000    0.0000 C   0  0  0  0  0  0  0  0  0  0  0  0
    0.0000    0.0000    0.0000 S   0  0  0  0  0  0  0  0  0  0  0  0
    0.0000    0.0000    0.0000 C   0  0  0  0  0  0  0  0  0  0  0  0
    0.0000    0.0000    0.0000 C   0  0  0  0  0  0  0  0  0  0  0  0
    0.0000    0.0000    0.0000 C   0  0  0  0  0  0  0  0  0  0  0  0
    0.0000    0.0000    0.0000 C   0  0  0  0  0  0  0  0  0  0  0  0
    0.0000    0.0000    0.0000 C   0  0  0  0  0  0  0  0  0  0  0  0
    0.0000    0.0000    0.0000 C   0  0  0  0  0  0  0  0  0  0  0  0
    0.0000    0.0000    0.0000 N   0  0  0  0  0  0  0  0  0  0  0  0
    0.0000    0.0000    0.0000 O   0  0  0  0  0  0  0  0  0  0  0  0
    0.0000    0.0000    0.0000 O   0  0  0  0  0  0  0  0  0  0  0  0
  1  2  1  0
  2  3  1  0
  3  4  1  0
  4  5  1  0
  5  6  1  0
  6  7  2  0
  7  8  1  0
  7  9  1  0
  9 10  1  0
 10 11  2  0
 10 12  1  0
 12 13  1  0
 13 14  1  0
 14 15  1  0
 15 16  2  0
 16 17  1  0
 17 18  2  0
 18 19  1  0
 19 20  2  0
 18 21  1  0
 21 22  2  0
 21 23  1  0
 13  3  2  0
 12  5  2  0
 20 15  1  0
M  CHG  2  21   1  23  -1
M  END
>  <pIC50>  (392) 
6.59

>  <ChEMBL_ID>  (392) 
CHEMBL564937

>  <document_journal>  (392) 
J. Med. Chem.

>  <bao_endpoint>  (392) 
BAO_0000190

>  <potential_duplicate>  (392) 
False

>  <uo_units>  (392) 
UO_0000065

>  <canonical_smiles>  (392) 
CCc1sc2N=C(N)NC(=O)c2c1Sc3ccc(cc3)[N+](=O)[O-]

>  <parent_molecule_chembl_id>  (392) 
CHEMBL564937

>  <assay_type>  (392) 
B

>  <src_id>  (392) 
1

>  <ligand_efficiency>  (392) 
{u'le': u'0.39', u'bei': u'18.9', u'sei': u'3.95', u'lle': u'3.36'}

>  <standard_flag>  (392) 
True

>  <molecule_chembl_id>  (392) 
CHEMBL564937

>  <target_organism>  (392) 
Homo sapiens

>  <standard_units>  (392) 
nM

>  <record_id>  (392) 
821553

>  <document_chembl_id>  (392) 
CHEMBL1151945

>  <bao_format>  (392) 
BAO_0000357

>  <data_validity_description>  (392) 
None

>  <activity_id>  (392) 
2677901

>  <standard_type>  (392) 
IC50

>  <target_chembl_id>  (392) 
CHEMBL202

>  <data_validity_comment>  (392) 
None

>  <published_value>  (392) 
0.26

>  <document_year>  (392) 
2009

>  <target_pref_name>  (392) 
Dihydrofolate reductase

>  <assay_chembl_id>  (392) 
CHEMBL1062969

>  <standard_relation>  (392) 
=

>  <assay_description>  (392) 
Inhibition of human recombinant dihydrofolate reductase

>  <published_relation>  (392) 
=

>  <standard_value>  (392) 
260

>  <qudt_units>  (392) 
http://www.openphacts.org/units/Nanomolar

>  <target_tax_id>  (392) 
9606

>  <bao_label>  (392) 
single protein format

>  <published_units>  (392) 
uM

>  <pchembl_value>  (392) 
6.59

>  <published_type>  (392) 
IC50

>  <activity_comment>  (392) 
None

$$$$

     RDKit          

 24 26  0  0  0  0  0  0  0  0999 V2000
    0.0000    0.0000    0.0000 C   0  0  0  0  0  0  0  0  0  0  0  0
    0.0000    0.0000    0.0000 C   0  0  0  0  0  0  0  0  0  0  0  0
    0.0000    0.0000    0.0000 C   0  0  0  0  0  0  0  0  0  0  0  0
    0.0000    0.0000    0.0000 S   0  0  0  0  0  0  0  0  0  0  0  0
    0.0000    0.0000    0.0000 C   0  0  0  0  0  0  0  0  0  0  0  0
    0.0000    0.0000    0.0000 N   0  0  0  0  0  0  0  0  0  0  0  0
    0.0000    0.0000    0.0000 C   0  0  0  0  0  0  0  0  0  0  0  0
    0.0000    0.0000    0.0000 N   0  0  0  0  0  0  0  0  0  0  0  0
    0.0000    0.0000    0.0000 N   0  0  0  0  0  0  0  0  0  0  0  0
    0.0000    0.0000    0.0000 C   0  0  0  0  0  0  0  0  0  0  0  0
    0.0000    0.0000    0.0000 O   0  0  0  0  0  0  0  0  0  0  0  0
    0.0000    0.0000    0.0000 C   0  0  0  0  0  0  0  0  0  0  0  0
    0.0000    0.0000    0.0000 C   0  0  0  0  0  0  0  0  0  0  0  0
    0.0000    0.0000    0.0000 S   0  0  0  0  0  0  0  0  0  0  0  0
    0.0000    0.0000    0.0000 C   0  0  0  0  0  0  0  0  0  0  0  0
    0.0000    0.0000    0.0000 C   0  0  0  0  0  0  0  0  0  0  0  0
    0.0000    0.0000    0.0000 C   0  0  0  0  0  0  0  0  0  0  0  0
    0.0000    0.0000    0.0000 O   0  0  0  0  0  0  0  0  0  0  0  0
    0.0000    0.0000    0.0000 C   0  0  0  0  0  0  0  0  0  0  0  0
    0.0000    0.0000    0.0000 C   0  0  0  0  0  0  0  0  0  0  0  0
    0.0000    0.0000    0.0000 C   0  0  0  0  0  0  0  0  0  0  0  0
    0.0000    0.0000    0.0000 C   0  0  0  0  0  0  0  0  0  0  0  0
    0.0000    0.0000    0.0000 O   0  0  0  0  0  0  0  0  0  0  0  0
    0.0000    0.0000    0.0000 C   0  0  0  0  0  0  0  0  0  0  0  0
  1  2  1  0
  2  3  1  0
  3  4  1  0
  4  5  1  0
  5  6  1  0
  6  7  2  0
  7  8  1  0
  7  9  1  0
  9 10  1  0
 10 11  2  0
 10 12  1  0
 12 13  1  0
 13 14  1  0
 14 15  1  0
 15 16  2  0
 16 17  1  0
 17 18  1  0
 18 19  1  0
 17 20  2  0
 20 21  1  0
 21 22  2  0
 22 23  1  0
 23 24  1  0
 13  3  2  0
 12  5  2  0
 22 15  1  0
M  END
>  <pIC50>  (393) 
6.08

>  <ChEMBL_ID>  (393) 
CHEMBL564004

>  <document_journal>  (393) 
J. Med. Chem.

>  <bao_endpoint>  (393) 
BAO_0000190

>  <potential_duplicate>  (393) 
False

>  <uo_units>  (393) 
UO_0000065

>  <canonical_smiles>  (393) 
CCc1sc2N=C(N)NC(=O)c2c1Sc3cc(OC)ccc3OC

>  <parent_molecule_chembl_id>  (393) 
CHEMBL564004

>  <assay_type>  (393) 
B

>  <src_id>  (393) 
1

>  <ligand_efficiency>  (393) 
{u'le': u'0.35', u'bei': u'16.72', u'sei': u'4.36', u'lle': u'2.78'}

>  <standard_flag>  (393) 
True

>  <molecule_chembl_id>  (393) 
CHEMBL564004

>  <target_organism>  (393) 
Homo sapiens

>  <standard_units>  (393) 
nM

>  <record_id>  (393) 
821554

>  <document_chembl_id>  (393) 
CHEMBL1151945

>  <bao_format>  (393) 
BAO_0000357

>  <data_validity_description>  (393) 
None

>  <activity_id>  (393) 
2677902

>  <standard_type>  (393) 
IC50

>  <target_chembl_id>  (393) 
CHEMBL202

>  <data_validity_comment>  (393) 
None

>  <published_value>  (393) 
0.84

>  <document_year>  (393) 
2009

>  <target_pref_name>  (393) 
Dihydrofolate reductase

>  <assay_chembl_id>  (393) 
CHEMBL1062969

>  <standard_relation>  (393) 
=

>  <assay_description>  (393) 
Inhibition of human recombinant dihydrofolate reductase

>  <published_relation>  (393) 
=

>  <standard_value>  (393) 
840

>  <qudt_units>  (393) 
http://www.openphacts.org/units/Nanomolar

>  <target_tax_id>  (393) 
9606

>  <bao_label>  (393) 
single protein format

>  <published_units>  (393) 
uM

>  <pchembl_value>  (393) 
6.08

>  <published_type>  (393) 
IC50

>  <activity_comment>  (393) 
None

$$$$

     RDKit          

 22 24  0  0  0  0  0  0  0  0999 V2000
    0.0000    0.0000    0.0000 C   0  0  0  0  0  0  0  0  0  0  0  0
    0.0000    0.0000    0.0000 C   0  0  0  0  0  0  0  0  0  0  0  0
    0.0000    0.0000    0.0000 C   0  0  0  0  0  0  0  0  0  0  0  0
    0.0000    0.0000    0.0000 S   0  0  0  0  0  0  0  0  0  0  0  0
    0.0000    0.0000    0.0000 C   0  0  0  0  0  0  0  0  0  0  0  0
    0.0000    0.0000    0.0000 N   0  0  0  0  0  0  0  0  0  0  0  0
    0.0000    0.0000    0.0000 C   0  0  0  0  0  0  0  0  0  0  0  0
    0.0000    0.0000    0.0000 N   0  0  0  0  0  0  0  0  0  0  0  0
    0.0000    0.0000    0.0000 N   0  0  0  0  0  0  0  0  0  0  0  0
    0.0000    0.0000    0.0000 C   0  0  0  0  0  0  0  0  0  0  0  0
    0.0000    0.0000    0.0000 O   0  0  0  0  0  0  0  0  0  0  0  0
    0.0000    0.0000    0.0000 C   0  0  0  0  0  0  0  0  0  0  0  0
    0.0000    0.0000    0.0000 C   0  0  0  0  0  0  0  0  0  0  0  0
    0.0000    0.0000    0.0000 S   0  0  0  0  0  0  0  0  0  0  0  0
    0.0000    0.0000    0.0000 C   0  0  0  0  0  0  0  0  0  0  0  0
    0.0000    0.0000    0.0000 C   0  0  0  0  0  0  0  0  0  0  0  0
    0.0000    0.0000    0.0000 C   0  0  0  0  0  0  0  0  0  0  0  0
    0.0000    0.0000    0.0000 C   0  0  0  0  0  0  0  0  0  0  0  0
    0.0000    0.0000    0.0000 Cl  0  0  0  0  0  0  0  0  0  0  0  0
    0.0000    0.0000    0.0000 C   0  0  0  0  0  0  0  0  0  0  0  0
    0.0000    0.0000    0.0000 Cl  0  0  0  0  0  0  0  0  0  0  0  0
    0.0000    0.0000    0.0000 C   0  0  0  0  0  0  0  0  0  0  0  0
  1  2  1  0
  2  3  1  0
  3  4  1  0
  4  5  1  0
  5  6  1  0
  6  7  2  0
  7  8  1  0
  7  9  1  0
  9 10  1  0
 10 11  2  0
 10 12  1  0
 12 13  1  0
 13 14  1  0
 14 15  1  0
 15 16  2  0
 16 17  1  0
 17 18  2  0
 18 19  1  0
 18 20  1  0
 20 21  1  0
 20 22  2  0
 13  3  2  0
 12  5  2  0
 22 15  1  0
M  END
>  <pIC50>  (394) 
6.54

>  <ChEMBL_ID>  (394) 
CHEMBL556091

>  <document_journal>  (394) 
J. Med. Chem.

>  <bao_endpoint>  (394) 
BAO_0000190

>  <potential_duplicate>  (394) 
False

>  <uo_units>  (394) 
UO_0000065

>  <canonical_smiles>  (394) 
CCc1sc2N=C(N)NC(=O)c2c1Sc3ccc(Cl)c(Cl)c3

>  <parent_molecule_chembl_id>  (394) 
CHEMBL556091

>  <assay_type>  (394) 
B

>  <src_id>  (394) 
1

>  <ligand_efficiency>  (394) 
{u'le': u'0.41', u'bei': u'17.56', u'sei': u'5.4', u'lle': u'1.87'}

>  <standard_flag>  (394) 
True

>  <molecule_chembl_id>  (394) 
CHEMBL556091

>  <target_organism>  (394) 
Homo sapiens

>  <standard_units>  (394) 
nM

>  <record_id>  (394) 
821555

>  <document_chembl_id>  (394) 
CHEMBL1151945

>  <bao_format>  (394) 
BAO_0000357

>  <data_validity_description>  (394) 
None

>  <activity_id>  (394) 
2677903

>  <standard_type>  (394) 
IC50

>  <target_chembl_id>  (394) 
CHEMBL202

>  <data_validity_comment>  (394) 
None

>  <published_value>  (394) 
0.29

>  <document_year>  (394) 
2009

>  <target_pref_name>  (394) 
Dihydrofolate reductase

>  <assay_chembl_id>  (394) 
CHEMBL1062969

>  <standard_relation>  (394) 
=

>  <assay_description>  (394) 
Inhibition of human recombinant dihydrofolate reductase

>  <published_relation>  (394) 
=

>  <standard_value>  (394) 
290

>  <qudt_units>  (394) 
http://www.openphacts.org/units/Nanomolar

>  <target_tax_id>  (394) 
9606

>  <bao_label>  (394) 
single protein format

>  <published_units>  (394) 
uM

>  <pchembl_value>  (394) 
6.54

>  <published_type>  (394) 
IC50

>  <activity_comment>  (394) 
None

$$$$

     RDKit          

 22 24  0  0  0  0  0  0  0  0999 V2000
    0.0000    0.0000    0.0000 C   0  0  0  0  0  0  0  0  0  0  0  0
    0.0000    0.0000    0.0000 C   0  0  0  0  0  0  0  0  0  0  0  0
    0.0000    0.0000    0.0000 C   0  0  0  0  0  0  0  0  0  0  0  0
    0.0000    0.0000    0.0000 S   0  0  0  0  0  0  0  0  0  0  0  0
    0.0000    0.0000    0.0000 C   0  0  0  0  0  0  0  0  0  0  0  0
    0.0000    0.0000    0.0000 N   0  0  0  0  0  0  0  0  0  0  0  0
    0.0000    0.0000    0.0000 C   0  0  0  0  0  0  0  0  0  0  0  0
    0.0000    0.0000    0.0000 N   0  0  0  0  0  0  0  0  0  0  0  0
    0.0000    0.0000    0.0000 N   0  0  0  0  0  0  0  0  0  0  0  0
    0.0000    0.0000    0.0000 C   0  0  0  0  0  0  0  0  0  0  0  0
    0.0000    0.0000    0.0000 O   0  0  0  0  0  0  0  0  0  0  0  0
    0.0000    0.0000    0.0000 C   0  0  0  0  0  0  0  0  0  0  0  0
    0.0000    0.0000    0.0000 C   0  0  0  0  0  0  0  0  0  0  0  0
    0.0000    0.0000    0.0000 S   0  0  0  0  0  0  0  0  0  0  0  0
    0.0000    0.0000    0.0000 C   0  0  0  0  0  0  0  0  0  0  0  0
    0.0000    0.0000    0.0000 C   0  0  0  0  0  0  0  0  0  0  0  0
    0.0000    0.0000    0.0000 C   0  0  0  0  0  0  0  0  0  0  0  0
    0.0000    0.0000    0.0000 Cl  0  0  0  0  0  0  0  0  0  0  0  0
    0.0000    0.0000    0.0000 C   0  0  0  0  0  0  0  0  0  0  0  0
    0.0000    0.0000    0.0000 C   0  0  0  0  0  0  0  0  0  0  0  0
    0.0000    0.0000    0.0000 Cl  0  0  0  0  0  0  0  0  0  0  0  0
    0.0000    0.0000    0.0000 C   0  0  0  0  0  0  0  0  0  0  0  0
  1  2  1  0
  2  3  1  0
  3  4  1  0
  4  5  1  0
  5  6  1  0
  6  7  2  0
  7  8  1  0
  7  9  1  0
  9 10  1  0
 10 11  2  0
 10 12  1  0
 12 13  1  0
 13 14  1  0
 14 15  1  0
 15 16  2  0
 16 17  1  0
 17 18  1  0
 17 19  2  0
 19 20  1  0
 20 21  1  0
 20 22  2  0
 13  3  2  0
 12  5  2  0
 22 15  1  0
M  END
>  <pIC50>  (395) 
6.55

>  <ChEMBL_ID>  (395) 
CHEMBL560912

>  <document_journal>  (395) 
J. Med. Chem.

>  <bao_endpoint>  (395) 
BAO_0000190

>  <potential_duplicate>  (395) 
False

>  <uo_units>  (395) 
UO_0000065

>  <canonical_smiles>  (395) 
CCc1sc2N=C(N)NC(=O)c2c1Sc3cc(Cl)cc(Cl)c3

>  <parent_molecule_chembl_id>  (395) 
CHEMBL560912

>  <assay_type>  (395) 
B

>  <src_id>  (395) 
1

>  <ligand_efficiency>  (395) 
{u'le': u'0.41', u'bei': u'17.6', u'sei': u'5.42', u'lle': u'1.88'}

>  <standard_flag>  (395) 
True

>  <molecule_chembl_id>  (395) 
CHEMBL560912

>  <target_organism>  (395) 
Homo sapiens

>  <standard_units>  (395) 
nM

>  <record_id>  (395) 
821556

>  <document_chembl_id>  (395) 
CHEMBL1151945

>  <bao_format>  (395) 
BAO_0000357

>  <data_validity_description>  (395) 
None

>  <activity_id>  (395) 
2677904

>  <standard_type>  (395) 
IC50

>  <target_chembl_id>  (395) 
CHEMBL202

>  <data_validity_comment>  (395) 
None

>  <published_value>  (395) 
0.28

>  <document_year>  (395) 
2009

>  <target_pref_name>  (395) 
Dihydrofolate reductase

>  <assay_chembl_id>  (395) 
CHEMBL1062969

>  <standard_relation>  (395) 
=

>  <assay_description>  (395) 
Inhibition of human recombinant dihydrofolate reductase

>  <published_relation>  (395) 
=

>  <standard_value>  (395) 
280

>  <qudt_units>  (395) 
http://www.openphacts.org/units/Nanomolar

>  <target_tax_id>  (395) 
9606

>  <bao_label>  (395) 
single protein format

>  <published_units>  (395) 
uM

>  <pchembl_value>  (395) 
6.55

>  <published_type>  (395) 
IC50

>  <activity_comment>  (395) 
None

$$$$

     RDKit          

 24 27  0  0  0  0  0  0  0  0999 V2000
    0.0000    0.0000    0.0000 C   0  0  0  0  0  0  0  0  0  0  0  0
    0.0000    0.0000    0.0000 C   0  0  0  0  0  0  0  0  0  0  0  0
    0.0000    0.0000    0.0000 C   0  0  0  0  0  0  0  0  0  0  0  0
    0.0000    0.0000    0.0000 S   0  0  0  0  0  0  0  0  0  0  0  0
    0.0000    0.0000    0.0000 C   0  0  0  0  0  0  0  0  0  0  0  0
    0.0000    0.0000    0.0000 N   0  0  0  0  0  0  0  0  0  0  0  0
    0.0000    0.0000    0.0000 C   0  0  0  0  0  0  0  0  0  0  0  0
    0.0000    0.0000    0.0000 N   0  0  0  0  0  0  0  0  0  0  0  0
    0.0000    0.0000    0.0000 N   0  0  0  0  0  0  0  0  0  0  0  0
    0.0000    0.0000    0.0000 C   0  0  0  0  0  0  0  0  0  0  0  0
    0.0000    0.0000    0.0000 O   0  0  0  0  0  0  0  0  0  0  0  0
    0.0000    0.0000    0.0000 C   0  0  0  0  0  0  0  0  0  0  0  0
    0.0000    0.0000    0.0000 C   0  0  0  0  0  0  0  0  0  0  0  0
    0.0000    0.0000    0.0000 S   0  0  0  0  0  0  0  0  0  0  0  0
    0.0000    0.0000    0.0000 C   0  0  0  0  0  0  0  0  0  0  0  0
    0.0000    0.0000    0.0000 C   0  0  0  0  0  0  0  0  0  0  0  0
    0.0000    0.0000    0.0000 C   0  0  0  0  0  0  0  0  0  0  0  0
    0.0000    0.0000    0.0000 C   0  0  0  0  0  0  0  0  0  0  0  0
    0.0000    0.0000    0.0000 C   0  0  0  0  0  0  0  0  0  0  0  0
    0.0000    0.0000    0.0000 C   0  0  0  0  0  0  0  0  0  0  0  0
    0.0000    0.0000    0.0000 C   0  0  0  0  0  0  0  0  0  0  0  0
    0.0000    0.0000    0.0000 C   0  0  0  0  0  0  0  0  0  0  0  0
    0.0000    0.0000    0.0000 C   0  0  0  0  0  0  0  0  0  0  0  0
    0.0000    0.0000    0.0000 C   0  0  0  0  0  0  0  0  0  0  0  0
  1  2  1  0
  2  3  1  0
  3  4  1  0
  4  5  1  0
  5  6  1  0
  6  7  2  0
  7  8  1  0
  7  9  1  0
  9 10  1  0
 10 11  2  0
 10 12  1  0
 12 13  1  0
 13 14  1  0
 14 15  1  0
 15 16  2  0
 16 17  1  0
 17 18  2  0
 18 19  1  0
 19 20  2  0
 20 21  1  0
 21 22  2  0
 22 23  1  0
 23 24  2  0
 13  3  2  0
 12  5  2  0
 24 15  1  0
 23 18  1  0
M  END
>  <pIC50>  (396) 
5.66

>  <ChEMBL_ID>  (396) 
CHEMBL550296

>  <document_journal>  (396) 
J. Med. Chem.

>  <bao_endpoint>  (396) 
BAO_0000190

>  <potential_duplicate>  (396) 
False

>  <uo_units>  (396) 
UO_0000065

>  <canonical_smiles>  (396) 
CCc1sc2N=C(N)NC(=O)c2c1Sc3ccc4ccccc4c3

>  <parent_molecule_chembl_id>  (396) 
CHEMBL550296

>  <assay_type>  (396) 
B

>  <src_id>  (396) 
1

>  <ligand_efficiency>  (396) 
{u'le': u'0.32', u'bei': u'16.01', u'sei': u'4.68', u'lle': u'1.42'}

>  <standard_flag>  (396) 
True

>  <molecule_chembl_id>  (396) 
CHEMBL550296

>  <target_organism>  (396) 
Homo sapiens

>  <standard_units>  (396) 
nM

>  <record_id>  (396) 
821557

>  <document_chembl_id>  (396) 
CHEMBL1151945

>  <bao_format>  (396) 
BAO_0000357

>  <data_validity_description>  (396) 
None

>  <activity_id>  (396) 
2677905

>  <standard_type>  (396) 
IC50

>  <target_chembl_id>  (396) 
CHEMBL202

>  <data_validity_comment>  (396) 
None

>  <published_value>  (396) 
2.2

>  <document_year>  (396) 
2009

>  <target_pref_name>  (396) 
Dihydrofolate reductase

>  <assay_chembl_id>  (396) 
CHEMBL1062969

>  <standard_relation>  (396) 
=

>  <assay_description>  (396) 
Inhibition of human recombinant dihydrofolate reductase

>  <published_relation>  (396) 
=

>  <standard_value>  (396) 
2200

>  <qudt_units>  (396) 
http://www.openphacts.org/units/Nanomolar

>  <target_tax_id>  (396) 
9606

>  <bao_label>  (396) 
single protein format

>  <published_units>  (396) 
uM

>  <pchembl_value>  (396) 
5.66

>  <published_type>  (396) 
IC50

>  <activity_comment>  (396) 
None

$$$$

     RDKit          

 20 22  0  0  0  0  0  0  0  0999 V2000
    0.0000    0.0000    0.0000 C   0  0  0  0  0  0  0  0  0  0  0  0
    0.0000    0.0000    0.0000 C   0  0  0  0  0  0  0  0  0  0  0  0
    0.0000    0.0000    0.0000 C   0  0  0  0  0  0  0  0  0  0  0  0
    0.0000    0.0000    0.0000 S   0  0  0  0  0  0  0  0  0  0  0  0
    0.0000    0.0000    0.0000 C   0  0  0  0  0  0  0  0  0  0  0  0
    0.0000    0.0000    0.0000 N   0  0  0  0  0  0  0  0  0  0  0  0
    0.0000    0.0000    0.0000 C   0  0  0  0  0  0  0  0  0  0  0  0
    0.0000    0.0000    0.0000 N   0  0  0  0  0  0  0  0  0  0  0  0
    0.0000    0.0000    0.0000 N   0  0  0  0  0  0  0  0  0  0  0  0
    0.0000    0.0000    0.0000 C   0  0  0  0  0  0  0  0  0  0  0  0
    0.0000    0.0000    0.0000 O   0  0  0  0  0  0  0  0  0  0  0  0
    0.0000    0.0000    0.0000 C   0  0  0  0  0  0  0  0  0  0  0  0
    0.0000    0.0000    0.0000 C   0  0  0  0  0  0  0  0  0  0  0  0
    0.0000    0.0000    0.0000 S   0  0  0  0  0  0  0  0  0  0  0  0
    0.0000    0.0000    0.0000 C   0  0  0  0  0  0  0  0  0  0  0  0
    0.0000    0.0000    0.0000 C   0  0  0  0  0  0  0  0  0  0  0  0
    0.0000    0.0000    0.0000 C   0  0  0  0  0  0  0  0  0  0  0  0
    0.0000    0.0000    0.0000 N   0  0  0  0  0  0  0  0  0  0  0  0
    0.0000    0.0000    0.0000 C   0  0  0  0  0  0  0  0  0  0  0  0
    0.0000    0.0000    0.0000 C   0  0  0  0  0  0  0  0  0  0  0  0
  1  2  1  0
  2  3  1  0
  3  4  1  0
  4  5  1  0
  5  6  1  0
  6  7  2  0
  7  8  1  0
  7  9  1  0
  9 10  1  0
 10 11  2  0
 10 12  1  0
 12 13  1  0
 13 14  1  0
 14 15  1  0
 15 16  2  0
 16 17  1  0
 17 18  2  0
 18 19  1  0
 19 20  2  0
 13  3  2  0
 12  5  2  0
 20 15  1  0
M  END
>  <pIC50>  (397) 
6.46

>  <ChEMBL_ID>  (397) 
CHEMBL550842

>  <document_journal>  (397) 
J. Med. Chem.

>  <bao_endpoint>  (397) 
BAO_0000190

>  <potential_duplicate>  (397) 
False

>  <uo_units>  (397) 
UO_0000065

>  <canonical_smiles>  (397) 
CCc1sc2N=C(N)NC(=O)c2c1Sc3ccncc3

>  <parent_molecule_chembl_id>  (397) 
CHEMBL550842

>  <assay_type>  (397) 
B

>  <src_id>  (397) 
1

>  <ligand_efficiency>  (397) 
{u'le': u'0.44', u'bei': u'21.21', u'sei': u'4.82', u'lle': u'4.27'}

>  <standard_flag>  (397) 
True

>  <molecule_chembl_id>  (397) 
CHEMBL550842

>  <target_organism>  (397) 
Homo sapiens

>  <standard_units>  (397) 
nM

>  <record_id>  (397) 
820202

>  <document_chembl_id>  (397) 
CHEMBL1151945

>  <bao_format>  (397) 
BAO_0000357

>  <data_validity_description>  (397) 
None

>  <activity_id>  (397) 
2677906

>  <standard_type>  (397) 
IC50

>  <target_chembl_id>  (397) 
CHEMBL202

>  <data_validity_comment>  (397) 
None

>  <published_value>  (397) 
0.35

>  <document_year>  (397) 
2009

>  <target_pref_name>  (397) 
Dihydrofolate reductase

>  <assay_chembl_id>  (397) 
CHEMBL1062969

>  <standard_relation>  (397) 
=

>  <assay_description>  (397) 
Inhibition of human recombinant dihydrofolate reductase

>  <published_relation>  (397) 
=

>  <standard_value>  (397) 
350

>  <qudt_units>  (397) 
http://www.openphacts.org/units/Nanomolar

>  <target_tax_id>  (397) 
9606

>  <bao_label>  (397) 
single protein format

>  <published_units>  (397) 
uM

>  <pchembl_value>  (397) 
6.46

>  <published_type>  (397) 
IC50

>  <activity_comment>  (397) 
None

$$$$

     RDKit          

 21 23  0  0  0  0  0  0  0  0999 V2000
    0.0000    0.0000    0.0000 C   0  0  0  0  0  0  0  0  0  0  0  0
    0.0000    0.0000    0.0000 C   0  0  0  0  0  0  0  0  0  0  0  0
    0.0000    0.0000    0.0000 C   0  0  0  0  0  0  0  0  0  0  0  0
    0.0000    0.0000    0.0000 S   0  0  0  0  0  0  0  0  0  0  0  0
    0.0000    0.0000    0.0000 C   0  0  0  0  0  0  0  0  0  0  0  0
    0.0000    0.0000    0.0000 N   0  0  0  0  0  0  0  0  0  0  0  0
    0.0000    0.0000    0.0000 C   0  0  0  0  0  0  0  0  0  0  0  0
    0.0000    0.0000    0.0000 N   0  0  0  0  0  0  0  0  0  0  0  0
    0.0000    0.0000    0.0000 N   0  0  0  0  0  0  0  0  0  0  0  0
    0.0000    0.0000    0.0000 C   0  0  0  0  0  0  0  0  0  0  0  0
    0.0000    0.0000    0.0000 O   0  0  0  0  0  0  0  0  0  0  0  0
    0.0000    0.0000    0.0000 C   0  0  0  0  0  0  0  0  0  0  0  0
    0.0000    0.0000    0.0000 C   0  0  0  0  0  0  0  0  0  0  0  0
    0.0000    0.0000    0.0000 S   0  0  0  0  0  0  0  0  0  0  0  0
    0.0000    0.0000    0.0000 C   0  0  0  0  0  0  0  0  0  0  0  0
    0.0000    0.0000    0.0000 C   0  0  0  0  0  0  0  0  0  0  0  0
    0.0000    0.0000    0.0000 C   0  0  0  0  0  0  0  0  0  0  0  0
    0.0000    0.0000    0.0000 C   0  0  0  0  0  0  0  0  0  0  0  0
    0.0000    0.0000    0.0000 F   0  0  0  0  0  0  0  0  0  0  0  0
    0.0000    0.0000    0.0000 C   0  0  0  0  0  0  0  0  0  0  0  0
    0.0000    0.0000    0.0000 C   0  0  0  0  0  0  0  0  0  0  0  0
  1  2  1  0
  2  3  1  0
  3  4  1  0
  4  5  1  0
  5  6  1  0
  6  7  2  0
  7  8  1  0
  7  9  1  0
  9 10  1  0
 10 11  2  0
 10 12  1  0
 12 13  1  0
 13 14  1  0
 14 15  1  0
 15 16  2  0
 16 17  1  0
 17 18  2  0
 18 19  1  0
 18 20  1  0
 20 21  2  0
 13  3  2  0
 12  5  2  0
 21 15  1  0
M  END
>  <pIC50>  (398) 
6.21

>  <ChEMBL_ID>  (398) 
CHEMBL538143

>  <document_journal>  (398) 
J. Med. Chem.

>  <bao_endpoint>  (398) 
BAO_0000190

>  <potential_duplicate>  (398) 
False

>  <uo_units>  (398) 
UO_0000065

>  <canonical_smiles>  (398) 
CCc1sc2N=C(N)NC(=O)c2c1Sc3ccc(F)cc3

>  <parent_molecule_chembl_id>  (398) 
CHEMBL538143

>  <assay_type>  (398) 
B

>  <src_id>  (398) 
1

>  <ligand_efficiency>  (398) 
{u'le': u'0.4', u'bei': u'19.31', u'sei': u'5.13', u'lle': u'2.67'}

>  <standard_flag>  (398) 
True

>  <molecule_chembl_id>  (398) 
CHEMBL538143

>  <target_organism>  (398) 
Homo sapiens

>  <standard_units>  (398) 
nM

>  <record_id>  (398) 
820203

>  <document_chembl_id>  (398) 
CHEMBL1151945

>  <bao_format>  (398) 
BAO_0000357

>  <data_validity_description>  (398) 
None

>  <activity_id>  (398) 
2677907

>  <standard_type>  (398) 
IC50

>  <target_chembl_id>  (398) 
CHEMBL202

>  <data_validity_comment>  (398) 
None

>  <published_value>  (398) 
0.62

>  <document_year>  (398) 
2009

>  <target_pref_name>  (398) 
Dihydrofolate reductase

>  <assay_chembl_id>  (398) 
CHEMBL1062969

>  <standard_relation>  (398) 
=

>  <assay_description>  (398) 
Inhibition of human recombinant dihydrofolate reductase

>  <published_relation>  (398) 
=

>  <standard_value>  (398) 
620

>  <qudt_units>  (398) 
http://www.openphacts.org/units/Nanomolar

>  <target_tax_id>  (398) 
9606

>  <bao_label>  (398) 
single protein format

>  <published_units>  (398) 
uM

>  <pchembl_value>  (398) 
6.21

>  <published_type>  (398) 
IC50

>  <activity_comment>  (398) 
None

$$$$

     RDKit          

 21 23  0  0  0  0  0  0  0  0999 V2000
    0.0000    0.0000    0.0000 C   0  0  0  0  0  0  0  0  0  0  0  0
    0.0000    0.0000    0.0000 C   0  0  0  0  0  0  0  0  0  0  0  0
    0.0000    0.0000    0.0000 C   0  0  0  0  0  0  0  0  0  0  0  0
    0.0000    0.0000    0.0000 S   0  0  0  0  0  0  0  0  0  0  0  0
    0.0000    0.0000    0.0000 C   0  0  0  0  0  0  0  0  0  0  0  0
    0.0000    0.0000    0.0000 N   0  0  0  0  0  0  0  0  0  0  0  0
    0.0000    0.0000    0.0000 C   0  0  0  0  0  0  0  0  0  0  0  0
    0.0000    0.0000    0.0000 N   0  0  0  0  0  0  0  0  0  0  0  0
    0.0000    0.0000    0.0000 N   0  0  0  0  0  0  0  0  0  0  0  0
    0.0000    0.0000    0.0000 C   0  0  0  0  0  0  0  0  0  0  0  0
    0.0000    0.0000    0.0000 O   0  0  0  0  0  0  0  0  0  0  0  0
    0.0000    0.0000    0.0000 C   0  0  0  0  0  0  0  0  0  0  0  0
    0.0000    0.0000    0.0000 C   0  0  0  0  0  0  0  0  0  0  0  0
    0.0000    0.0000    0.0000 S   0  0  0  0  0  0  0  0  0  0  0  0
    0.0000    0.0000    0.0000 C   0  0  0  0  0  0  0  0  0  0  0  0
    0.0000    0.0000    0.0000 C   0  0  0  0  0  0  0  0  0  0  0  0
    0.0000    0.0000    0.0000 C   0  0  0  0  0  0  0  0  0  0  0  0
    0.0000    0.0000    0.0000 C   0  0  0  0  0  0  0  0  0  0  0  0
    0.0000    0.0000    0.0000 Br  0  0  0  0  0  0  0  0  0  0  0  0
    0.0000    0.0000    0.0000 C   0  0  0  0  0  0  0  0  0  0  0  0
    0.0000    0.0000    0.0000 C   0  0  0  0  0  0  0  0  0  0  0  0
  1  2  1  0
  2  3  1  0
  3  4  1  0
  4  5  1  0
  5  6  1  0
  6  7  2  0
  7  8  1  0
  7  9  1  0
  9 10  1  0
 10 11  2  0
 10 12  1  0
 12 13  1  0
 13 14  1  0
 14 15  1  0
 15 16  2  0
 16 17  1  0
 17 18  2  0
 18 19  1  0
 18 20  1  0
 20 21  2  0
 13  3  2  0
 12  5  2  0
 21 15  1  0
M  END
>  <pIC50>  (399) 
6.59

>  <ChEMBL_ID>  (399) 
CHEMBL565179

>  <document_journal>  (399) 
J. Med. Chem.

>  <bao_endpoint>  (399) 
BAO_0000190

>  <potential_duplicate>  (399) 
False

>  <uo_units>  (399) 
UO_0000065

>  <canonical_smiles>  (399) 
CCc1sc2N=C(N)NC(=O)c2c1Sc3ccc(Br)cc3

>  <parent_molecule_chembl_id>  (399) 
CHEMBL565179

>  <assay_type>  (399) 
B

>  <src_id>  (399) 
1

>  <ligand_efficiency>  (399) 
{u'le': u'0.43', u'bei': u'17.22', u'sei': u'5.44', u'lle': u'2.5'}

>  <standard_flag>  (399) 
True

>  <molecule_chembl_id>  (399) 
CHEMBL565179

>  <target_organism>  (399) 
Homo sapiens

>  <standard_units>  (399) 
nM

>  <record_id>  (399) 
820204

>  <document_chembl_id>  (399) 
CHEMBL1151945

>  <bao_format>  (399) 
BAO_0000357

>  <data_validity_description>  (399) 
None

>  <activity_id>  (399) 
2677908

>  <standard_type>  (399) 
IC50

>  <target_chembl_id>  (399) 
CHEMBL202

>  <data_validity_comment>  (399) 
None

>  <published_value>  (399) 
0.26

>  <document_year>  (399) 
2009

>  <target_pref_name>  (399) 
Dihydrofolate reductase

>  <assay_chembl_id>  (399) 
CHEMBL1062969

>  <standard_relation>  (399) 
=

>  <assay_description>  (399) 
Inhibition of human recombinant dihydrofolate reductase

>  <published_relation>  (399) 
=

>  <standard_value>  (399) 
260

>  <qudt_units>  (399) 
http://www.openphacts.org/units/Nanomolar

>  <target_tax_id>  (399) 
9606

>  <bao_label>  (399) 
single protein format

>  <published_units>  (399) 
uM

>  <pchembl_value>  (399) 
6.59

>  <published_type>  (399) 
IC50

>  <activity_comment>  (399) 
None

$$$$

     RDKit          

 21 23  0  0  0  0  0  0  0  0999 V2000
    0.0000    0.0000    0.0000 C   0  0  0  0  0  0  0  0  0  0  0  0
    0.0000    0.0000    0.0000 C   0  0  0  0  0  0  0  0  0  0  0  0
    0.0000    0.0000    0.0000 C   0  0  0  0  0  0  0  0  0  0  0  0
    0.0000    0.0000    0.0000 S   0  0  0  0  0  0  0  0  0  0  0  0
    0.0000    0.0000    0.0000 C   0  0  0  0  0  0  0  0  0  0  0  0
    0.0000    0.0000    0.0000 N   0  0  0  0  0  0  0  0  0  0  0  0
    0.0000    0.0000    0.0000 C   0  0  0  0  0  0  0  0  0  0  0  0
    0.0000    0.0000    0.0000 N   0  0  0  0  0  0  0  0  0  0  0  0
    0.0000    0.0000    0.0000 N   0  0  0  0  0  0  0  0  0  0  0  0
    0.0000    0.0000    0.0000 C   0  0  0  0  0  0  0  0  0  0  0  0
    0.0000    0.0000    0.0000 O   0  0  0  0  0  0  0  0  0  0  0  0
    0.0000    0.0000    0.0000 C   0  0  0  0  0  0  0  0  0  0  0  0
    0.0000    0.0000    0.0000 C   0  0  0  0  0  0  0  0  0  0  0  0
    0.0000    0.0000    0.0000 S   0  0  0  0  0  0  0  0  0  0  0  0
    0.0000    0.0000    0.0000 C   0  0  0  0  0  0  0  0  0  0  0  0
    0.0000    0.0000    0.0000 C   0  0  0  0  0  0  0  0  0  0  0  0
    0.0000    0.0000    0.0000 C   0  0  0  0  0  0  0  0  0  0  0  0
    0.0000    0.0000    0.0000 C   0  0  0  0  0  0  0  0  0  0  0  0
    0.0000    0.0000    0.0000 C   0  0  0  0  0  0  0  0  0  0  0  0
    0.0000    0.0000    0.0000 Cl  0  0  0  0  0  0  0  0  0  0  0  0
    0.0000    0.0000    0.0000 C   0  0  0  0  0  0  0  0  0  0  0  0
  1  2  1  0
  2  3  1  0
  3  4  1  0
  4  5  1  0
  5  6  1  0
  6  7  2  0
  7  8  1  0
  7  9  1  0
  9 10  1  0
 10 11  2  0
 10 12  1  0
 12 13  1  0
 13 14  1  0
 14 15  1  0
 15 16  2  0
 16 17  1  0
 17 18  2  0
 18 19  1  0
 19 20  1  0
 19 21  2  0
 13  3  2  0
 12  5  2  0
 21 15  1  0
M  END
>  <pIC50>  (400) 
6.52

>  <ChEMBL_ID>  (400) 
CHEMBL551985

>  <document_journal>  (400) 
J. Med. Chem.

>  <bao_endpoint>  (400) 
BAO_0000190

>  <potential_duplicate>  (400) 
False

>  <uo_units>  (400) 
UO_0000065

>  <canonical_smiles>  (400) 
CCc1sc2N=C(N)NC(=O)c2c1Sc3cccc(Cl)c3

>  <parent_molecule_chembl_id>  (400) 
CHEMBL551985

>  <assay_type>  (400) 
B

>  <src_id>  (400) 
1

>  <ligand_efficiency>  (400) 
{u'le': u'0.42', u'bei': u'19.31', u'sei': u'5.39', u'lle': u'2.52'}

>  <standard_flag>  (400) 
True

>  <molecule_chembl_id>  (400) 
CHEMBL551985

>  <target_organism>  (400) 
Homo sapiens

>  <standard_units>  (400) 
nM

>  <record_id>  (400) 
820205

>  <document_chembl_id>  (400) 
CHEMBL1151945

>  <bao_format>  (400) 
BAO_0000357

>  <data_validity_description>  (400) 
None

>  <activity_id>  (400) 
2677909

>  <standard_type>  (400) 
IC50

>  <target_chembl_id>  (400) 
CHEMBL202

>  <data_validity_comment>  (400) 
None

>  <published_value>  (400) 
0.3

>  <document_year>  (400) 
2009

>  <target_pref_name>  (400) 
Dihydrofolate reductase

>  <assay_chembl_id>  (400) 
CHEMBL1062969

>  <standard_relation>  (400) 
=

>  <assay_description>  (400) 
Inhibition of human recombinant dihydrofolate reductase

>  <published_relation>  (400) 
=

>  <standard_value>  (400) 
300

>  <qudt_units>  (400) 
http://www.openphacts.org/units/Nanomolar

>  <target_tax_id>  (400) 
9606

>  <bao_label>  (400) 
single protein format

>  <published_units>  (400) 
uM

>  <pchembl_value>  (400) 
6.52

>  <published_type>  (400) 
IC50

>  <activity_comment>  (400) 
None

$$$$

     RDKit          

 24 26  0  0  0  0  0  0  0  0999 V2000
    0.0000    0.0000    0.0000 C   0  0  0  0  0  0  0  0  0  0  0  0
    0.0000    0.0000    0.0000 C   0  0  0  0  0  0  0  0  0  0  0  0
    0.0000    0.0000    0.0000 C   0  0  0  0  0  0  0  0  0  0  0  0
    0.0000    0.0000    0.0000 S   0  0  0  0  0  0  0  0  0  0  0  0
    0.0000    0.0000    0.0000 C   0  0  0  0  0  0  0  0  0  0  0  0
    0.0000    0.0000    0.0000 N   0  0  0  0  0  0  0  0  0  0  0  0
    0.0000    0.0000    0.0000 C   0  0  0  0  0  0  0  0  0  0  0  0
    0.0000    0.0000    0.0000 N   0  0  0  0  0  0  0  0  0  0  0  0
    0.0000    0.0000    0.0000 N   0  0  0  0  0  0  0  0  0  0  0  0
    0.0000    0.0000    0.0000 C   0  0  0  0  0  0  0  0  0  0  0  0
    0.0000    0.0000    0.0000 O   0  0  0  0  0  0  0  0  0  0  0  0
    0.0000    0.0000    0.0000 C   0  0  0  0  0  0  0  0  0  0  0  0
    0.0000    0.0000    0.0000 C   0  0  0  0  0  0  0  0  0  0  0  0
    0.0000    0.0000    0.0000 S   0  0  0  0  0  0  0  0  0  0  0  0
    0.0000    0.0000    0.0000 C   0  0  0  0  0  0  0  0  0  0  0  0
    0.0000    0.0000    0.0000 C   0  0  0  0  0  0  0  0  0  0  0  0
    0.0000    0.0000    0.0000 C   0  0  0  0  0  0  0  0  0  0  0  0
    0.0000    0.0000    0.0000 O   0  0  0  0  0  0  0  0  0  0  0  0
    0.0000    0.0000    0.0000 C   0  0  0  0  0  0  0  0  0  0  0  0
    0.0000    0.0000    0.0000 C   0  0  0  0  0  0  0  0  0  0  0  0
    0.0000    0.0000    0.0000 C   0  0  0  0  0  0  0  0  0  0  0  0
    0.0000    0.0000    0.0000 O   0  0  0  0  0  0  0  0  0  0  0  0
    0.0000    0.0000    0.0000 C   0  0  0  0  0  0  0  0  0  0  0  0
    0.0000    0.0000    0.0000 C   0  0  0  0  0  0  0  0  0  0  0  0
  1  2  1  0
  2  3  1  0
  3  4  1  0
  4  5  1  0
  5  6  1  0
  6  7  2  0
  7  8  1  0
  7  9  1  0
  9 10  1  0
 10 11  2  0
 10 12  1  0
 12 13  1  0
 13 14  1  0
 14 15  1  0
 15 16  2  0
 16 17  1  0
 17 18  1  0
 18 19  1  0
 17 20  2  0
 20 21  1  0
 21 22  1  0
 22 23  1  0
 21 24  2  0
 13  3  2  0
 12  5  2  0
 24 15  1  0
M  END
>  <pIC50>  (401) 
6.27

>  <ChEMBL_ID>  (401) 
CHEMBL563212

>  <document_journal>  (401) 
J. Med. Chem.

>  <bao_endpoint>  (401) 
BAO_0000190

>  <potential_duplicate>  (401) 
False

>  <uo_units>  (401) 
UO_0000065

>  <canonical_smiles>  (401) 
CCc1sc2N=C(N)NC(=O)c2c1Sc3cc(OC)cc(OC)c3

>  <parent_molecule_chembl_id>  (401) 
CHEMBL563212

>  <assay_type>  (401) 
B

>  <src_id>  (401) 
1

>  <ligand_efficiency>  (401) 
{u'le': u'0.36', u'bei': u'17.24', u'sei': u'4.49', u'lle': u'2.97'}

>  <standard_flag>  (401) 
True

>  <molecule_chembl_id>  (401) 
CHEMBL563212

>  <target_organism>  (401) 
Homo sapiens

>  <standard_units>  (401) 
nM

>  <record_id>  (401) 
820206

>  <document_chembl_id>  (401) 
CHEMBL1151945

>  <bao_format>  (401) 
BAO_0000357

>  <data_validity_description>  (401) 
None

>  <activity_id>  (401) 
2677910

>  <standard_type>  (401) 
IC50

>  <target_chembl_id>  (401) 
CHEMBL202

>  <data_validity_comment>  (401) 
None

>  <published_value>  (401) 
0.54

>  <document_year>  (401) 
2009

>  <target_pref_name>  (401) 
Dihydrofolate reductase

>  <assay_chembl_id>  (401) 
CHEMBL1062969

>  <standard_relation>  (401) 
=

>  <assay_description>  (401) 
Inhibition of human recombinant dihydrofolate reductase

>  <published_relation>  (401) 
=

>  <standard_value>  (401) 
540

>  <qudt_units>  (401) 
http://www.openphacts.org/units/Nanomolar

>  <target_tax_id>  (401) 
9606

>  <bao_label>  (401) 
single protein format

>  <published_units>  (401) 
uM

>  <pchembl_value>  (401) 
6.27

>  <published_type>  (401) 
IC50

>  <activity_comment>  (401) 
None

$$$$

     RDKit          

 21 23  0  0  0  0  0  0  0  0999 V2000
    0.0000    0.0000    0.0000 C   0  0  0  0  0  0  0  0  0  0  0  0
    0.0000    0.0000    0.0000 C   0  0  0  0  0  0  0  0  0  0  0  0
    0.0000    0.0000    0.0000 C   0  0  0  0  0  0  0  0  0  0  0  0
    0.0000    0.0000    0.0000 S   0  0  0  0  0  0  0  0  0  0  0  0
    0.0000    0.0000    0.0000 C   0  0  0  0  0  0  0  0  0  0  0  0
    0.0000    0.0000    0.0000 N   0  0  0  0  0  0  0  0  0  0  0  0
    0.0000    0.0000    0.0000 C   0  0  0  0  0  0  0  0  0  0  0  0
    0.0000    0.0000    0.0000 N   0  0  0  0  0  0  0  0  0  0  0  0
    0.0000    0.0000    0.0000 N   0  0  0  0  0  0  0  0  0  0  0  0
    0.0000    0.0000    0.0000 C   0  0  0  0  0  0  0  0  0  0  0  0
    0.0000    0.0000    0.0000 O   0  0  0  0  0  0  0  0  0  0  0  0
    0.0000    0.0000    0.0000 C   0  0  0  0  0  0  0  0  0  0  0  0
    0.0000    0.0000    0.0000 C   0  0  0  0  0  0  0  0  0  0  0  0
    0.0000    0.0000    0.0000 S   0  0  0  0  0  0  0  0  0  0  0  0
    0.0000    0.0000    0.0000 C   0  0  0  0  0  0  0  0  0  0  0  0
    0.0000    0.0000    0.0000 C   0  0  0  0  0  0  0  0  0  0  0  0
    0.0000    0.0000    0.0000 C   0  0  0  0  0  0  0  0  0  0  0  0
    0.0000    0.0000    0.0000 C   0  0  0  0  0  0  0  0  0  0  0  0
    0.0000    0.0000    0.0000 C   0  0  0  0  0  0  0  0  0  0  0  0
    0.0000    0.0000    0.0000 C   0  0  0  0  0  0  0  0  0  0  0  0
    0.0000    0.0000    0.0000 Cl  0  0  0  0  0  0  0  0  0  0  0  0
  1  2  1  0
  2  3  1  0
  3  4  1  0
  4  5  1  0
  5  6  1  0
  6  7  2  0
  7  8  1  0
  7  9  1  0
  9 10  1  0
 10 11  2  0
 10 12  1  0
 12 13  1  0
 13 14  1  0
 14 15  1  0
 15 16  2  0
 16 17  1  0
 17 18  2  0
 18 19  1  0
 19 20  2  0
 20 21  1  0
 13  3  2  0
 12  5  2  0
 20 15  1  0
M  END
>  <pIC50>  (402) 
6.22

>  <ChEMBL_ID>  (402) 
CHEMBL551768

>  <document_journal>  (402) 
J. Med. Chem.

>  <bao_endpoint>  (402) 
BAO_0000190

>  <potential_duplicate>  (402) 
False

>  <uo_units>  (402) 
UO_0000065

>  <canonical_smiles>  (402) 
CCc1sc2N=C(N)NC(=O)c2c1Sc3ccccc3Cl

>  <parent_molecule_chembl_id>  (402) 
CHEMBL551768

>  <assay_type>  (402) 
B

>  <src_id>  (402) 
1

>  <ligand_efficiency>  (402) 
{u'le': u'0.4', u'bei': u'18.42', u'sei': u'5.14', u'lle': u'2.22'}

>  <standard_flag>  (402) 
True

>  <molecule_chembl_id>  (402) 
CHEMBL551768

>  <target_organism>  (402) 
Homo sapiens

>  <standard_units>  (402) 
nM

>  <record_id>  (402) 
820207

>  <document_chembl_id>  (402) 
CHEMBL1151945

>  <bao_format>  (402) 
BAO_0000357

>  <data_validity_description>  (402) 
None

>  <activity_id>  (402) 
2677911

>  <standard_type>  (402) 
IC50

>  <target_chembl_id>  (402) 
CHEMBL202

>  <data_validity_comment>  (402) 
None

>  <published_value>  (402) 
0.6

>  <document_year>  (402) 
2009

>  <target_pref_name>  (402) 
Dihydrofolate reductase

>  <assay_chembl_id>  (402) 
CHEMBL1062969

>  <standard_relation>  (402) 
=

>  <assay_description>  (402) 
Inhibition of human recombinant dihydrofolate reductase

>  <published_relation>  (402) 
=

>  <standard_value>  (402) 
600

>  <qudt_units>  (402) 
http://www.openphacts.org/units/Nanomolar

>  <target_tax_id>  (402) 
9606

>  <bao_label>  (402) 
single protein format

>  <published_units>  (402) 
uM

>  <pchembl_value>  (402) 
6.22

>  <published_type>  (402) 
IC50

>  <activity_comment>  (402) 
None

$$$$

     RDKit          

 26 27  0  0  0  0  0  0  0  0999 V2000
    0.0000    0.0000    0.0000 C   0  0  0  0  0  0  0  0  0  0  0  0
    0.0000    0.0000    0.0000 C   0  0  0  0  0  0  0  0  0  0  0  0
    0.0000    0.0000    0.0000 C   0  0  0  0  0  0  0  0  0  0  0  0
    0.0000    0.0000    0.0000 C   0  0  0  0  0  0  0  0  0  0  0  0
    0.0000    0.0000    0.0000 C   0  0  0  0  0  0  0  0  0  0  0  0
    0.0000    0.0000    0.0000 C   0  0  0  0  0  0  0  0  0  0  0  0
    0.0000    0.0000    0.0000 C   0  0  0  0  0  0  0  0  0  0  0  0
    0.0000    0.0000    0.0000 C   0  0  0  0  0  0  0  0  0  0  0  0
    0.0000    0.0000    0.0000 N   0  0  0  0  0  0  0  0  0  0  0  0
    0.0000    0.0000    0.0000 C   0  0  0  0  0  0  0  0  0  0  0  0
    0.0000    0.0000    0.0000 N   0  0  0  0  0  0  0  0  0  0  0  0
    0.0000    0.0000    0.0000 N   0  0  0  0  0  0  0  0  0  0  0  0
    0.0000    0.0000    0.0000 C   0  0  0  0  0  0  0  0  0  0  0  0
    0.0000    0.0000    0.0000 N   0  0  0  0  0  0  0  0  0  0  0  0
    0.0000    0.0000    0.0000 C   0  0  0  0  0  0  0  0  0  0  0  0
    0.0000    0.0000    0.0000 C   0  0  0  0  0  0  0  0  0  0  0  0
    0.0000    0.0000    0.0000 C   0  0  0  0  0  0  0  0  0  0  0  0
    0.0000    0.0000    0.0000 O   0  0  0  0  0  0  0  0  0  0  0  0
    0.0000    0.0000    0.0000 C   0  0  0  0  0  0  0  0  0  0  0  0
    0.0000    0.0000    0.0000 C   0  0  0  0  0  0  0  0  0  0  0  0
    0.0000    0.0000    0.0000 O   0  0  0  0  0  0  0  0  0  0  0  0
    0.0000    0.0000    0.0000 C   0  0  0  0  0  0  0  0  0  0  0  0
    0.0000    0.0000    0.0000 C   0  0  0  0  0  0  0  0  0  0  0  0
    0.0000    0.0000    0.0000 O   0  0  0  0  0  0  0  0  0  0  0  0
    0.0000    0.0000    0.0000 C   0  0  0  0  0  0  0  0  0  0  0  0
    0.0000    0.0000    0.0000 C   0  0  0  0  0  0  0  0  0  0  0  0
  1  2  1  0
  2  3  1  0
  3  4  1  0
  4  5  3  0
  5  6  1  0
  6  7  2  0
  7  8  1  0
  7  9  1  0
  9 10  2  0
 10 11  1  0
 10 12  1  0
 12 13  2  0
 13 14  1  0
  3 15  1  0
 15 16  2  0
 16 17  1  0
 17 18  1  0
 18 19  1  0
 17 20  2  0
 20 21  1  0
 21 22  1  0
 20 23  1  0
 23 24  1  0
 24 25  1  0
 23 26  2  0
 13  6  1  0
 26 15  1  0
M  END
>  <pIC50>  (403) 
6.7

>  <ChEMBL_ID>  (403) 
CHEMBL574335

>  <document_journal>  (403) 
Bioorg. Med. Chem.

>  <bao_endpoint>  (403) 
BAO_0000190

>  <potential_duplicate>  (403) 
False

>  <uo_units>  (403) 
UO_0000065

>  <canonical_smiles>  (403) 
CCC(C#Cc1c(C)nc(N)nc1N)c2cc(OC)c(OC)c(OC)c2

>  <parent_molecule_chembl_id>  (403) 
CHEMBL574335

>  <assay_type>  (403) 
B

>  <src_id>  (403) 
1

>  <ligand_efficiency>  (403) 
{u'le': u'0.35', u'bei': u'18.8', u'sei': u'6.35', u'lle': u'3.58'}

>  <standard_flag>  (403) 
True

>  <molecule_chembl_id>  (403) 
CHEMBL574335

>  <target_organism>  (403) 
Homo sapiens

>  <standard_units>  (403) 
nM

>  <record_id>  (403) 
846542

>  <document_chembl_id>  (403) 
CHEMBL1154109

>  <bao_format>  (403) 
BAO_0000357

>  <data_validity_description>  (403) 
None

>  <activity_id>  (403) 
2913097

>  <standard_type>  (403) 
IC50

>  <target_chembl_id>  (403) 
CHEMBL202

>  <data_validity_comment>  (403) 
None

>  <published_value>  (403) 
0.2

>  <document_year>  (403) 
2009

>  <target_pref_name>  (403) 
Dihydrofolate reductase

>  <assay_chembl_id>  (403) 
CHEMBL1044822

>  <standard_relation>  (403) 
=

>  <assay_description>  (403) 
Inhibition of human DHFR assessed as rate of NADPH consumption using dihydrofolate as substrate

>  <published_relation>  (403) 
=

>  <standard_value>  (403) 
200

>  <qudt_units>  (403) 
http://www.openphacts.org/units/Nanomolar

>  <target_tax_id>  (403) 
9606

>  <bao_label>  (403) 
single protein format

>  <published_units>  (403) 
uM

>  <pchembl_value>  (403) 
6.7

>  <published_type>  (403) 
IC50

>  <activity_comment>  (403) 
None

$$$$

     RDKit          

 27 28  0  0  0  0  0  0  0  0999 V2000
    0.0000    0.0000    0.0000 C   0  0  0  0  0  0  0  0  0  0  0  0
    0.0000    0.0000    0.0000 O   0  0  0  0  0  0  0  0  0  0  0  0
    0.0000    0.0000    0.0000 C   0  0  0  0  0  0  0  0  0  0  0  0
    0.0000    0.0000    0.0000 C   0  0  0  0  0  0  0  0  0  0  0  0
    0.0000    0.0000    0.0000 C   0  0  0  0  0  0  0  0  0  0  0  0
    0.0000    0.0000    0.0000 C   0  0  0  0  0  0  0  0  0  0  0  0
    0.0000    0.0000    0.0000 C   0  0  0  0  0  0  0  0  0  0  0  0
    0.0000    0.0000    0.0000 O   0  0  0  0  0  0  0  0  0  0  0  0
    0.0000    0.0000    0.0000 C   0  0  0  0  0  0  0  0  0  0  0  0
    0.0000    0.0000    0.0000 C   0  0  0  0  0  0  0  0  0  0  0  0
    0.0000    0.0000    0.0000 O   0  0  0  0  0  0  0  0  0  0  0  0
    0.0000    0.0000    0.0000 C   0  0  0  0  0  0  0  0  0  0  0  0
    0.0000    0.0000    0.0000 C   0  0  0  0  0  0  0  0  0  0  0  0
    0.0000    0.0000    0.0000 C   0  0  0  0  0  0  0  0  0  0  0  0
    0.0000    0.0000    0.0000 C   0  0  0  0  0  0  0  0  0  0  0  0
    0.0000    0.0000    0.0000 C   0  0  0  0  0  0  0  0  0  0  0  0
    0.0000    0.0000    0.0000 C   0  0  0  0  0  0  0  0  0  0  0  0
    0.0000    0.0000    0.0000 C   0  0  0  0  0  0  0  0  0  0  0  0
    0.0000    0.0000    0.0000 N   0  0  0  0  0  0  0  0  0  0  0  0
    0.0000    0.0000    0.0000 C   0  0  0  0  0  0  0  0  0  0  0  0
    0.0000    0.0000    0.0000 N   0  0  0  0  0  0  0  0  0  0  0  0
    0.0000    0.0000    0.0000 N   0  0  0  0  0  0  0  0  0  0  0  0
    0.0000    0.0000    0.0000 C   0  0  0  0  0  0  0  0  0  0  0  0
    0.0000    0.0000    0.0000 N   0  0  0  0  0  0  0  0  0  0  0  0
    0.0000    0.0000    0.0000 C   0  0  0  0  0  0  0  0  0  0  0  0
    0.0000    0.0000    0.0000 C   0  0  0  0  0  0  0  0  0  0  0  0
    0.0000    0.0000    0.0000 C   0  0  0  0  0  0  0  0  0  0  0  0
  1  2  1  0
  2  3  1  0
  3  4  2  0
  4  5  1  0
  5  6  2  0
  6  7  1  0
  7  8  1  0
  8  9  1  0
  7 10  2  0
 10 11  1  0
 11 12  1  0
  5 13  1  0
 13 14  1  0
 14 15  3  0
 15 16  1  0
 16 17  2  0
 17 18  1  0
 17 19  1  0
 19 20  2  0
 20 21  1  0
 20 22  1  0
 22 23  2  0
 23 24  1  0
 13 25  1  0
 25 26  1  0
 25 27  1  0
 10  3  1  0
 23 16  1  0
M  END
>  <pIC50>  (404) 
6.54

>  <ChEMBL_ID>  (404) 
CHEMBL582843

>  <document_journal>  (404) 
Bioorg. Med. Chem.

>  <bao_endpoint>  (404) 
BAO_0000190

>  <potential_duplicate>  (404) 
False

>  <uo_units>  (404) 
UO_0000065

>  <canonical_smiles>  (404) 
COc1cc(cc(OC)c1OC)C(C#Cc2c(C)nc(N)nc2N)C(C)C

>  <parent_molecule_chembl_id>  (404) 
CHEMBL582843

>  <assay_type>  (404) 
B

>  <src_id>  (404) 
1

>  <ligand_efficiency>  (404) 
{u'le': u'0.33', u'bei': u'17.65', u'sei': u'6.2', u'lle': u'3.16'}

>  <standard_flag>  (404) 
True

>  <molecule_chembl_id>  (404) 
CHEMBL582843

>  <target_organism>  (404) 
Homo sapiens

>  <standard_units>  (404) 
nM

>  <record_id>  (404) 
846586

>  <document_chembl_id>  (404) 
CHEMBL1154109

>  <bao_format>  (404) 
BAO_0000357

>  <data_validity_description>  (404) 
None

>  <activity_id>  (404) 
2913098

>  <standard_type>  (404) 
IC50

>  <target_chembl_id>  (404) 
CHEMBL202

>  <data_validity_comment>  (404) 
None

>  <published_value>  (404) 
0.29

>  <document_year>  (404) 
2009

>  <target_pref_name>  (404) 
Dihydrofolate reductase

>  <assay_chembl_id>  (404) 
CHEMBL1044822

>  <standard_relation>  (404) 
=

>  <assay_description>  (404) 
Inhibition of human DHFR assessed as rate of NADPH consumption using dihydrofolate as substrate

>  <published_relation>  (404) 
=

>  <standard_value>  (404) 
290

>  <qudt_units>  (404) 
http://www.openphacts.org/units/Nanomolar

>  <target_tax_id>  (404) 
9606

>  <bao_label>  (404) 
single protein format

>  <published_units>  (404) 
uM

>  <pchembl_value>  (404) 
6.54

>  <published_type>  (404) 
IC50

>  <activity_comment>  (404) 
None

$$$$

     RDKit          

 26 27  0  0  0  0  0  0  0  0999 V2000
    0.0000    0.0000    0.0000 C   0  0  0  0  0  0  0  0  0  0  0  0
    0.0000    0.0000    0.0000 C   0  0  0  0  0  0  0  0  0  0  0  0
    0.0000    0.0000    0.0000 C   0  0  0  0  0  0  0  0  0  0  0  0
    0.0000    0.0000    0.0000 N   0  0  0  0  0  0  0  0  0  0  0  0
    0.0000    0.0000    0.0000 C   0  0  0  0  0  0  0  0  0  0  0  0
    0.0000    0.0000    0.0000 N   0  0  0  0  0  0  0  0  0  0  0  0
    0.0000    0.0000    0.0000 N   0  0  0  0  0  0  0  0  0  0  0  0
    0.0000    0.0000    0.0000 C   0  0  0  0  0  0  0  0  0  0  0  0
    0.0000    0.0000    0.0000 N   0  0  0  0  0  0  0  0  0  0  0  0
    0.0000    0.0000    0.0000 C   0  0  0  0  0  0  0  0  0  0  0  0
    0.0000    0.0000    0.0000 C   0  0  0  0  0  0  0  0  0  0  0  0
    0.0000    0.0000    0.0000 C   0  0  0  0  0  0  0  0  0  0  0  0
    0.0000    0.0000    0.0000 C   0  0  0  0  0  0  0  0  0  0  0  0
    0.0000    0.0000    0.0000 C   0  0  0  0  0  0  0  0  0  0  0  0
    0.0000    0.0000    0.0000 C   0  0  0  0  0  0  0  0  0  0  0  0
    0.0000    0.0000    0.0000 C   0  0  0  0  0  0  0  0  0  0  0  0
    0.0000    0.0000    0.0000 C   0  0  0  0  0  0  0  0  0  0  0  0
    0.0000    0.0000    0.0000 O   0  0  0  0  0  0  0  0  0  0  0  0
    0.0000    0.0000    0.0000 C   0  0  0  0  0  0  0  0  0  0  0  0
    0.0000    0.0000    0.0000 C   0  0  0  0  0  0  0  0  0  0  0  0
    0.0000    0.0000    0.0000 O   0  0  0  0  0  0  0  0  0  0  0  0
    0.0000    0.0000    0.0000 C   0  0  0  0  0  0  0  0  0  0  0  0
    0.0000    0.0000    0.0000 C   0  0  0  0  0  0  0  0  0  0  0  0
    0.0000    0.0000    0.0000 O   0  0  0  0  0  0  0  0  0  0  0  0
    0.0000    0.0000    0.0000 C   0  0  0  0  0  0  0  0  0  0  0  0
    0.0000    0.0000    0.0000 C   0  0  0  0  0  0  0  0  0  0  0  0
  1  2  1  0
  2  3  1  0
  3  4  2  0
  4  5  1  0
  5  6  1  0
  5  7  2  0
  7  8  1  0
  8  9  1  0
  8 10  2  0
 10 11  1  0
 11 12  3  0
 12 13  1  0
 13 14  1  0
 13 15  1  0
 15 16  2  0
 16 17  1  0
 17 18  1  0
 18 19  1  0
 17 20  2  0
 20 21  1  0
 21 22  1  0
 20 23  1  0
 23 24  1  0
 24 25  1  0
 23 26  2  0
 10  3  1  0
 26 15  1  0
M  END
>  <pIC50>  (405) 
7.06

>  <ChEMBL_ID>  (405) 
CHEMBL575223

>  <document_journal>  (405) 
Bioorg. Med. Chem.

>  <bao_endpoint>  (405) 
BAO_0000190

>  <potential_duplicate>  (405) 
False

>  <uo_units>  (405) 
UO_0000065

>  <canonical_smiles>  (405) 
CCc1nc(N)nc(N)c1C#CC(C)c2cc(OC)c(OC)c(OC)c2

>  <parent_molecule_chembl_id>  (405) 
CHEMBL575223

>  <assay_type>  (405) 
B

>  <src_id>  (405) 
1

>  <ligand_efficiency>  (405) 
{u'le': u'0.37', u'bei': u'19.8', u'sei': u'6.69', u'lle': u'3.72'}

>  <standard_flag>  (405) 
True

>  <molecule_chembl_id>  (405) 
CHEMBL575223

>  <target_organism>  (405) 
Homo sapiens

>  <standard_units>  (405) 
nM

>  <record_id>  (405) 
846684

>  <document_chembl_id>  (405) 
CHEMBL1154109

>  <bao_format>  (405) 
BAO_0000357

>  <data_validity_description>  (405) 
None

>  <activity_id>  (405) 
2913100

>  <standard_type>  (405) 
IC50

>  <target_chembl_id>  (405) 
CHEMBL202

>  <data_validity_comment>  (405) 
None

>  <published_value>  (405) 
0.088

>  <document_year>  (405) 
2009

>  <target_pref_name>  (405) 
Dihydrofolate reductase

>  <assay_chembl_id>  (405) 
CHEMBL1044822

>  <standard_relation>  (405) 
=

>  <assay_description>  (405) 
Inhibition of human DHFR assessed as rate of NADPH consumption using dihydrofolate as substrate

>  <published_relation>  (405) 
=

>  <standard_value>  (405) 
88

>  <qudt_units>  (405) 
http://www.openphacts.org/units/Nanomolar

>  <target_tax_id>  (405) 
9606

>  <bao_label>  (405) 
single protein format

>  <published_units>  (405) 
uM

>  <pchembl_value>  (405) 
7.06

>  <published_type>  (405) 
IC50

>  <activity_comment>  (405) 
None

$$$$

     RDKit          

 23 24  0  0  0  0  0  0  0  0999 V2000
    0.0000    0.0000    0.0000 C   0  0  0  0  0  0  0  0  0  0  0  0
    0.0000    0.0000    0.0000 O   0  0  0  0  0  0  0  0  0  0  0  0
    0.0000    0.0000    0.0000 C   0  0  0  0  0  0  0  0  0  0  0  0
    0.0000    0.0000    0.0000 C   0  0  0  0  0  0  0  0  0  0  0  0
    0.0000    0.0000    0.0000 C   0  0  0  0  0  0  0  0  0  0  0  0
    0.0000    0.0000    0.0000 C   0  0  0  0  0  0  0  0  0  0  0  0
    0.0000    0.0000    0.0000 O   0  0  0  0  0  0  0  0  0  0  0  0
    0.0000    0.0000    0.0000 C   0  0  0  0  0  0  0  0  0  0  0  0
    0.0000    0.0000    0.0000 C   0  0  0  0  0  0  0  0  0  0  0  0
    0.0000    0.0000    0.0000 C   0  0  0  0  0  0  0  0  0  0  0  0
    0.0000    0.0000    0.0000 C   0  0  0  0  0  0  0  0  0  0  0  0
    0.0000    0.0000    0.0000 O   0  0  0  0  0  0  0  0  0  0  0  0
    0.0000    0.0000    0.0000 C   0  0  0  0  0  0  0  0  0  0  0  0
    0.0000    0.0000    0.0000 C   0  0  0  0  0  0  0  0  0  0  0  0
    0.0000    0.0000    0.0000 C   0  0  0  0  0  0  0  0  0  0  0  0
    0.0000    0.0000    0.0000 C   0  0  0  0  0  0  0  0  0  0  0  0
    0.0000    0.0000    0.0000 C   0  0  0  0  0  0  0  0  0  0  0  0
    0.0000    0.0000    0.0000 N   0  0  0  0  0  0  0  0  0  0  0  0
    0.0000    0.0000    0.0000 C   0  0  0  0  0  0  0  0  0  0  0  0
    0.0000    0.0000    0.0000 N   0  0  0  0  0  0  0  0  0  0  0  0
    0.0000    0.0000    0.0000 N   0  0  0  0  0  0  0  0  0  0  0  0
    0.0000    0.0000    0.0000 C   0  0  0  0  0  0  0  0  0  0  0  0
    0.0000    0.0000    0.0000 N   0  0  0  0  0  0  0  0  0  0  0  0
  1  2  1  0
  2  3  1  0
  3  4  2  0
  4  5  1  0
  5  6  2  0
  6  7  1  0
  7  8  1  0
  6  9  1  0
  9 10  2  0
  9 11  1  0
 11 12  1  0
 11 13  1  0
 13 14  3  0
 14 15  1  0
 15 16  2  0
 16 17  1  0
 16 18  1  0
 18 19  2  0
 19 20  1  0
 19 21  1  0
 21 22  2  0
 22 23  1  0
 10  3  1  0
 22 15  1  0
M  END
>  <pIC50>  (406) 
5.92

>  <ChEMBL_ID>  (406) 
CHEMBL573880

>  <document_journal>  (406) 
Bioorg. Med. Chem.

>  <bao_endpoint>  (406) 
BAO_0000190

>  <potential_duplicate>  (406) 
False

>  <uo_units>  (406) 
UO_0000065

>  <canonical_smiles>  (406) 
COc1ccc(OC)c(c1)C(O)C#Cc2c(C)nc(N)nc2N

>  <parent_molecule_chembl_id>  (406) 
CHEMBL573880

>  <assay_type>  (406) 
B

>  <src_id>  (406) 
1

>  <ligand_efficiency>  (406) 
{u'le': u'0.35', u'bei': u'18.84', u'sei': u'5.08', u'lle': u'4.45'}

>  <standard_flag>  (406) 
True

>  <molecule_chembl_id>  (406) 
CHEMBL573880

>  <target_organism>  (406) 
Homo sapiens

>  <standard_units>  (406) 
nM

>  <record_id>  (406) 
846555

>  <document_chembl_id>  (406) 
CHEMBL1154109

>  <bao_format>  (406) 
BAO_0000357

>  <data_validity_description>  (406) 
None

>  <activity_id>  (406) 
2913105

>  <standard_type>  (406) 
IC50

>  <target_chembl_id>  (406) 
CHEMBL202

>  <data_validity_comment>  (406) 
None

>  <published_value>  (406) 
1.2

>  <document_year>  (406) 
2009

>  <target_pref_name>  (406) 
Dihydrofolate reductase

>  <assay_chembl_id>  (406) 
CHEMBL1044822

>  <standard_relation>  (406) 
=

>  <assay_description>  (406) 
Inhibition of human DHFR assessed as rate of NADPH consumption using dihydrofolate as substrate

>  <published_relation>  (406) 
=

>  <standard_value>  (406) 
1200

>  <qudt_units>  (406) 
http://www.openphacts.org/units/Nanomolar

>  <target_tax_id>  (406) 
9606

>  <bao_label>  (406) 
single protein format

>  <published_units>  (406) 
uM

>  <pchembl_value>  (406) 
5.92

>  <published_type>  (406) 
IC50

>  <activity_comment>  (406) 
None

$$$$

     RDKit          

 24 25  0  0  0  0  0  0  0  0999 V2000
    0.0000    0.0000    0.0000 C   0  0  0  0  0  0  0  0  0  0  0  0
    0.0000    0.0000    0.0000 O   0  0  0  0  0  0  0  0  0  0  0  0
    0.0000    0.0000    0.0000 C   0  0  0  0  0  0  0  0  0  0  0  0
    0.0000    0.0000    0.0000 C   0  0  0  0  0  0  0  0  0  0  0  0
    0.0000    0.0000    0.0000 C   0  0  0  0  0  0  0  0  0  0  0  0
    0.0000    0.0000    0.0000 C   0  0  0  0  0  0  0  0  0  0  0  0
    0.0000    0.0000    0.0000 C   0  0  0  0  0  0  0  0  0  0  0  0
    0.0000    0.0000    0.0000 C   0  0  0  0  0  0  0  0  0  0  0  0
    0.0000    0.0000    0.0000 N   0  0  0  0  0  0  0  0  0  0  0  0
    0.0000    0.0000    0.0000 C   0  0  0  0  0  0  0  0  0  0  0  0
    0.0000    0.0000    0.0000 N   0  0  0  0  0  0  0  0  0  0  0  0
    0.0000    0.0000    0.0000 N   0  0  0  0  0  0  0  0  0  0  0  0
    0.0000    0.0000    0.0000 C   0  0  0  0  0  0  0  0  0  0  0  0
    0.0000    0.0000    0.0000 N   0  0  0  0  0  0  0  0  0  0  0  0
    0.0000    0.0000    0.0000 C   0  0  0  0  0  0  0  0  0  0  0  0
    0.0000    0.0000    0.0000 C   0  0  0  0  0  0  0  0  0  0  0  0
    0.0000    0.0000    0.0000 C   0  0  0  0  0  0  0  0  0  0  0  0
    0.0000    0.0000    0.0000 O   0  0  0  0  0  0  0  0  0  0  0  0
    0.0000    0.0000    0.0000 C   0  0  0  0  0  0  0  0  0  0  0  0
    0.0000    0.0000    0.0000 C   0  0  0  0  0  0  0  0  0  0  0  0
    0.0000    0.0000    0.0000 C   0  0  0  0  0  0  0  0  0  0  0  0
    0.0000    0.0000    0.0000 C   0  0  0  0  0  0  0  0  0  0  0  0
    0.0000    0.0000    0.0000 O   0  0  0  0  0  0  0  0  0  0  0  0
    0.0000    0.0000    0.0000 C   0  0  0  0  0  0  0  0  0  0  0  0
  1  2  1  0
  2  3  1  0
  3  4  1  0
  4  5  3  0
  5  6  1  0
  6  7  2  0
  7  8  1  0
  7  9  1  0
  9 10  2  0
 10 11  1  0
 10 12  1  0
 12 13  2  0
 13 14  1  0
  3 15  1  0
 15 16  2  0
 16 17  1  0
 17 18  1  0
 18 19  1  0
 17 20  2  0
 20 21  1  0
 21 22  2  0
 22 23  1  0
 23 24  1  0
 13  6  1  0
 22 15  1  0
M  END
>  <pIC50>  (407) 
7.22

>  <ChEMBL_ID>  (407) 
CHEMBL584390

>  <document_journal>  (407) 
Bioorg. Med. Chem.

>  <bao_endpoint>  (407) 
BAO_0000190

>  <potential_duplicate>  (407) 
False

>  <uo_units>  (407) 
UO_0000065

>  <canonical_smiles>  (407) 
COC(C#Cc1c(C)nc(N)nc1N)c2cc(OC)ccc2OC

>  <parent_molecule_chembl_id>  (407) 
CHEMBL584390

>  <assay_type>  (407) 
B

>  <src_id>  (407) 
1

>  <ligand_efficiency>  (407) 
{u'le': u'0.41', u'bei': u'21.99', u'sei': u'6.84', u'lle': u'5.35'}

>  <standard_flag>  (407) 
True

>  <molecule_chembl_id>  (407) 
CHEMBL584390

>  <target_organism>  (407) 
Homo sapiens

>  <standard_units>  (407) 
nM

>  <record_id>  (407) 
846564

>  <document_chembl_id>  (407) 
CHEMBL1154109

>  <bao_format>  (407) 
BAO_0000357

>  <data_validity_description>  (407) 
None

>  <activity_id>  (407) 
2913106

>  <standard_type>  (407) 
IC50

>  <target_chembl_id>  (407) 
CHEMBL202

>  <data_validity_comment>  (407) 
None

>  <published_value>  (407) 
0.06

>  <document_year>  (407) 
2009

>  <target_pref_name>  (407) 
Dihydrofolate reductase

>  <assay_chembl_id>  (407) 
CHEMBL1044822

>  <standard_relation>  (407) 
=

>  <assay_description>  (407) 
Inhibition of human DHFR assessed as rate of NADPH consumption using dihydrofolate as substrate

>  <published_relation>  (407) 
=

>  <standard_value>  (407) 
60

>  <qudt_units>  (407) 
http://www.openphacts.org/units/Nanomolar

>  <target_tax_id>  (407) 
9606

>  <bao_label>  (407) 
single protein format

>  <published_units>  (407) 
uM

>  <pchembl_value>  (407) 
7.22

>  <published_type>  (407) 
IC50

>  <activity_comment>  (407) 
None

$$$$

     RDKit          

 23 24  0  0  0  0  0  0  0  0999 V2000
    0.0000    0.0000    0.0000 C   0  0  0  0  0  0  0  0  0  0  0  0
    0.0000    0.0000    0.0000 O   0  0  0  0  0  0  0  0  0  0  0  0
    0.0000    0.0000    0.0000 C   0  0  0  0  0  0  0  0  0  0  0  0
    0.0000    0.0000    0.0000 C   0  0  0  0  0  0  0  0  0  0  0  0
    0.0000    0.0000    0.0000 C   0  0  0  0  0  0  0  0  0  0  0  0
    0.0000    0.0000    0.0000 C   0  0  0  0  0  0  0  0  0  0  0  0
    0.0000    0.0000    0.0000 O   0  0  0  0  0  0  0  0  0  0  0  0
    0.0000    0.0000    0.0000 C   0  0  0  0  0  0  0  0  0  0  0  0
    0.0000    0.0000    0.0000 C   0  0  0  0  0  0  0  0  0  0  0  0
    0.0000    0.0000    0.0000 C   0  0  0  0  0  0  0  0  0  0  0  0
    0.0000    0.0000    0.0000 C   0  0  0  0  0  0  0  0  0  0  0  0
    0.0000    0.0000    0.0000 C   0  0  0  0  0  0  0  0  0  0  0  0
    0.0000    0.0000    0.0000 C   0  0  0  0  0  0  0  0  0  0  0  0
    0.0000    0.0000    0.0000 C   0  0  0  0  0  0  0  0  0  0  0  0
    0.0000    0.0000    0.0000 C   0  0  0  0  0  0  0  0  0  0  0  0
    0.0000    0.0000    0.0000 C   0  0  0  0  0  0  0  0  0  0  0  0
    0.0000    0.0000    0.0000 C   0  0  0  0  0  0  0  0  0  0  0  0
    0.0000    0.0000    0.0000 N   0  0  0  0  0  0  0  0  0  0  0  0
    0.0000    0.0000    0.0000 C   0  0  0  0  0  0  0  0  0  0  0  0
    0.0000    0.0000    0.0000 N   0  0  0  0  0  0  0  0  0  0  0  0
    0.0000    0.0000    0.0000 N   0  0  0  0  0  0  0  0  0  0  0  0
    0.0000    0.0000    0.0000 C   0  0  0  0  0  0  0  0  0  0  0  0
    0.0000    0.0000    0.0000 N   0  0  0  0  0  0  0  0  0  0  0  0
  1  2  1  0
  2  3  1  0
  3  4  2  0
  4  5  1  0
  5  6  2  0
  6  7  1  0
  7  8  1  0
  6  9  1  0
  9 10  2  0
  9 11  1  0
 11 12  1  0
 11 13  1  0
 13 14  3  0
 14 15  1  0
 15 16  2  0
 16 17  1  0
 16 18  1  0
 18 19  2  0
 19 20  1  0
 19 21  1  0
 21 22  2  0
 22 23  1  0
 10  3  1  0
 22 15  1  0
M  END
>  <pIC50>  (408) 
6.4

>  <ChEMBL_ID>  (408) 
CHEMBL574329

>  <document_journal>  (408) 
Bioorg. Med. Chem.

>  <bao_endpoint>  (408) 
BAO_0000190

>  <potential_duplicate>  (408) 
False

>  <uo_units>  (408) 
UO_0000065

>  <canonical_smiles>  (408) 
COc1ccc(OC)c(c1)C(C)C#Cc2c(C)nc(N)nc2N

>  <parent_molecule_chembl_id>  (408) 
CHEMBL574329

>  <assay_type>  (408) 
B

>  <src_id>  (408) 
1

>  <ligand_efficiency>  (408) 
{u'le': u'0.38', u'bei': u'20.48', u'sei': u'6.65', u'lle': u'3.72'}

>  <standard_flag>  (408) 
True

>  <molecule_chembl_id>  (408) 
CHEMBL574329

>  <target_organism>  (408) 
Homo sapiens

>  <standard_units>  (408) 
nM

>  <record_id>  (408) 
846647

>  <document_chembl_id>  (408) 
CHEMBL1154109

>  <bao_format>  (408) 
BAO_0000357

>  <data_validity_description>  (408) 
None

>  <activity_id>  (408) 
2913107

>  <standard_type>  (408) 
IC50

>  <target_chembl_id>  (408) 
CHEMBL202

>  <data_validity_comment>  (408) 
None

>  <published_value>  (408) 
0.4

>  <document_year>  (408) 
2009

>  <target_pref_name>  (408) 
Dihydrofolate reductase

>  <assay_chembl_id>  (408) 
CHEMBL1044822

>  <standard_relation>  (408) 
=

>  <assay_description>  (408) 
Inhibition of human DHFR assessed as rate of NADPH consumption using dihydrofolate as substrate

>  <published_relation>  (408) 
=

>  <standard_value>  (408) 
400

>  <qudt_units>  (408) 
http://www.openphacts.org/units/Nanomolar

>  <target_tax_id>  (408) 
9606

>  <bao_label>  (408) 
single protein format

>  <published_units>  (408) 
uM

>  <pchembl_value>  (408) 
6.4

>  <published_type>  (408) 
IC50

>  <activity_comment>  (408) 
None

$$$$

     RDKit          

 29 31  0  0  0  0  0  0  0  0999 V2000
    0.0000    0.0000    0.0000 C   0  0  0  0  0  0  0  0  0  0  0  0
    0.0000    0.0000    0.0000 O   0  0  0  0  0  0  0  0  0  0  0  0
    0.0000    0.0000    0.0000 C   0  0  0  0  0  0  0  0  0  0  0  0
    0.0000    0.0000    0.0000 C   0  0  0  0  0  0  0  0  0  0  0  0
    0.0000    0.0000    0.0000 C   0  0  0  0  0  0  0  0  0  0  0  0
    0.0000    0.0000    0.0000 C   0  0  0  0  0  0  0  0  0  0  0  0
    0.0000    0.0000    0.0000 C   0  0  0  0  0  0  0  0  0  0  0  0
    0.0000    0.0000    0.0000 C   0  0  0  0  0  0  0  0  0  0  0  0
    0.0000    0.0000    0.0000 C   0  0  0  0  0  0  0  0  0  0  0  0
    0.0000    0.0000    0.0000 C   0  0  0  0  0  0  0  0  0  0  0  0
    0.0000    0.0000    0.0000 C   0  0  0  0  0  0  0  0  0  0  0  0
    0.0000    0.0000    0.0000 O   0  0  0  0  0  0  0  0  0  0  0  0
    0.0000    0.0000    0.0000 C   0  0  0  0  0  0  0  0  0  0  0  0
    0.0000    0.0000    0.0000 C   0  0  0  0  0  0  0  0  0  0  0  0
    0.0000    0.0000    0.0000 C   0  0  0  0  0  0  0  0  0  0  0  0
    0.0000    0.0000    0.0000 C   0  0  0  0  0  0  0  0  0  0  0  0
    0.0000    0.0000    0.0000 C   0  0  0  0  0  0  0  0  0  0  0  0
    0.0000    0.0000    0.0000 C   0  0  0  0  0  0  0  0  0  0  0  0
    0.0000    0.0000    0.0000 C   0  0  0  0  0  0  0  0  0  0  0  0
    0.0000    0.0000    0.0000 C   0  0  0  0  0  0  0  0  0  0  0  0
    0.0000    0.0000    0.0000 C   0  0  0  0  0  0  0  0  0  0  0  0
    0.0000    0.0000    0.0000 C   0  0  0  0  0  0  0  0  0  0  0  0
    0.0000    0.0000    0.0000 C   0  0  0  0  0  0  0  0  0  0  0  0
    0.0000    0.0000    0.0000 N   0  0  0  0  0  0  0  0  0  0  0  0
    0.0000    0.0000    0.0000 C   0  0  0  0  0  0  0  0  0  0  0  0
    0.0000    0.0000    0.0000 N   0  0  0  0  0  0  0  0  0  0  0  0
    0.0000    0.0000    0.0000 N   0  0  0  0  0  0  0  0  0  0  0  0
    0.0000    0.0000    0.0000 C   0  0  0  0  0  0  0  0  0  0  0  0
    0.0000    0.0000    0.0000 N   0  0  0  0  0  0  0  0  0  0  0  0
  1  2  1  0
  2  3  1  0
  3  4  2  0
  4  5  1  0
  5  6  2  0
  6  7  1  0
  7  8  2  0
  6  9  1  0
  9 10  2  0
 10 11  1  0
 11 12  1  0
 12 13  1  0
 11 14  2  0
 14 15  1  0
 15 16  2  0
 15 17  1  0
 17 18  1  0
 17 19  1  0
 19 20  3  0
 20 21  1  0
 21 22  2  0
 22 23  1  0
 22 24  1  0
 24 25  2  0
 25 26  1  0
 25 27  1  0
 27 28  2  0
 28 29  1  0
  8  3  1  0
 16  9  1  0
 28 21  1  0
M  END
>  <pIC50>  (409) 
6.75

>  <ChEMBL_ID>  (409) 
CHEMBL572485

>  <document_journal>  (409) 
Bioorg. Med. Chem.

>  <bao_endpoint>  (409) 
BAO_0000190

>  <potential_duplicate>  (409) 
False

>  <uo_units>  (409) 
UO_0000065

>  <canonical_smiles>  (409) 
COc1ccc(cc1)c2cc(OC)cc(c2)C(C)C#Cc3c(C)nc(N)nc3N

>  <parent_molecule_chembl_id>  (409) 
CHEMBL572485

>  <assay_type>  (409) 
B

>  <src_id>  (409) 
1

>  <ligand_efficiency>  (409) 
{u'le': u'0.32', u'bei': u'17.36', u'sei': u'7.01', u'lle': u'2.54'}

>  <standard_flag>  (409) 
True

>  <molecule_chembl_id>  (409) 
CHEMBL572485

>  <target_organism>  (409) 
Homo sapiens

>  <standard_units>  (409) 
nM

>  <record_id>  (409) 
846549

>  <document_chembl_id>  (409) 
CHEMBL1154109

>  <bao_format>  (409) 
BAO_0000357

>  <data_validity_description>  (409) 
None

>  <activity_id>  (409) 
2913114

>  <standard_type>  (409) 
IC50

>  <target_chembl_id>  (409) 
CHEMBL202

>  <data_validity_comment>  (409) 
None

>  <published_value>  (409) 
0.18

>  <document_year>  (409) 
2009

>  <target_pref_name>  (409) 
Dihydrofolate reductase

>  <assay_chembl_id>  (409) 
CHEMBL1044822

>  <standard_relation>  (409) 
=

>  <assay_description>  (409) 
Inhibition of human DHFR assessed as rate of NADPH consumption using dihydrofolate as substrate

>  <published_relation>  (409) 
=

>  <standard_value>  (409) 
180

>  <qudt_units>  (409) 
http://www.openphacts.org/units/Nanomolar

>  <target_tax_id>  (409) 
9606

>  <bao_label>  (409) 
single protein format

>  <published_units>  (409) 
uM

>  <pchembl_value>  (409) 
6.75

>  <published_type>  (409) 
IC50

>  <activity_comment>  (409) 
None

$$$$

     RDKit          

 27 29  0  0  0  0  0  0  0  0999 V2000
    0.0000    0.0000    0.0000 C   0  0  0  0  0  0  0  0  0  0  0  0
    0.0000    0.0000    0.0000 O   0  0  0  0  0  0  0  0  0  0  0  0
    0.0000    0.0000    0.0000 C   0  0  0  0  0  0  0  0  0  0  0  0
    0.0000    0.0000    0.0000 C   0  0  0  0  0  0  0  0  0  0  0  0
    0.0000    0.0000    0.0000 C   0  0  0  0  0  0  0  0  0  0  0  0
    0.0000    0.0000    0.0000 C   0  0  0  0  0  0  0  0  0  0  0  0
    0.0000    0.0000    0.0000 C   0  0  0  0  0  0  0  0  0  0  0  0
    0.0000    0.0000    0.0000 C   0  0  0  0  0  0  0  0  0  0  0  0
    0.0000    0.0000    0.0000 C   0  0  0  0  0  0  0  0  0  0  0  0
    0.0000    0.0000    0.0000 C   0  0  0  0  0  0  0  0  0  0  0  0
    0.0000    0.0000    0.0000 C   0  0  0  0  0  0  0  0  0  0  0  0
    0.0000    0.0000    0.0000 C   0  0  0  0  0  0  0  0  0  0  0  0
    0.0000    0.0000    0.0000 C   0  0  0  0  0  0  0  0  0  0  0  0
    0.0000    0.0000    0.0000 C   0  0  0  0  0  0  0  0  0  0  0  0
    0.0000    0.0000    0.0000 C   0  0  0  0  0  0  0  0  0  0  0  0
    0.0000    0.0000    0.0000 O   0  0  0  0  0  0  0  0  0  0  0  0
    0.0000    0.0000    0.0000 C   0  0  0  0  0  0  0  0  0  0  0  0
    0.0000    0.0000    0.0000 C   0  0  0  0  0  0  0  0  0  0  0  0
    0.0000    0.0000    0.0000 C   0  0  0  0  0  0  0  0  0  0  0  0
    0.0000    0.0000    0.0000 C   0  0  0  0  0  0  0  0  0  0  0  0
    0.0000    0.0000    0.0000 C   0  0  0  0  0  0  0  0  0  0  0  0
    0.0000    0.0000    0.0000 N   0  0  0  0  0  0  0  0  0  0  0  0
    0.0000    0.0000    0.0000 C   0  0  0  0  0  0  0  0  0  0  0  0
    0.0000    0.0000    0.0000 N   0  0  0  0  0  0  0  0  0  0  0  0
    0.0000    0.0000    0.0000 N   0  0  0  0  0  0  0  0  0  0  0  0
    0.0000    0.0000    0.0000 C   0  0  0  0  0  0  0  0  0  0  0  0
    0.0000    0.0000    0.0000 N   0  0  0  0  0  0  0  0  0  0  0  0
  1  2  1  0
  2  3  1  0
  3  4  2  0
  4  5  1  0
  5  6  2  0
  6  7  1  0
  7  8  2  0
  7  9  1  0
  9 10  2  0
 10 11  1  0
 11 12  2  0
 12 13  1  0
 13 14  2  0
  5 15  1  0
 15 16  1  0
 15 17  1  0
 17 18  3  0
 18 19  1  0
 19 20  2  0
 20 21  1  0
 20 22  1  0
 22 23  2  0
 23 24  1  0
 23 25  1  0
 25 26  2  0
 26 27  1  0
  8  3  1  0
 14  9  1  0
 26 19  1  0
M  END
>  <pIC50>  (410) 
5.64

>  <ChEMBL_ID>  (410) 
CHEMBL574559

>  <document_journal>  (410) 
Bioorg. Med. Chem.

>  <bao_endpoint>  (410) 
BAO_0000190

>  <potential_duplicate>  (410) 
False

>  <uo_units>  (410) 
UO_0000065

>  <canonical_smiles>  (410) 
COc1cc(cc(c1)c2ccccc2)C(O)C#Cc3c(C)nc(N)nc3N

>  <parent_molecule_chembl_id>  (410) 
CHEMBL574559

>  <assay_type>  (410) 
B

>  <src_id>  (410) 
1

>  <ligand_efficiency>  (410) 
{u'le': u'0.29', u'bei': u'15.64', u'sei': u'5.26', u'lle': u'2.64'}

>  <standard_flag>  (410) 
True

>  <molecule_chembl_id>  (410) 
CHEMBL574559

>  <target_organism>  (410) 
Homo sapiens

>  <standard_units>  (410) 
nM

>  <record_id>  (410) 
846565

>  <document_chembl_id>  (410) 
CHEMBL1154109

>  <bao_format>  (410) 
BAO_0000357

>  <data_validity_description>  (410) 
None

>  <activity_id>  (410) 
2913115

>  <standard_type>  (410) 
IC50

>  <target_chembl_id>  (410) 
CHEMBL202

>  <data_validity_comment>  (410) 
None

>  <published_value>  (410) 
2.3

>  <document_year>  (410) 
2009

>  <target_pref_name>  (410) 
Dihydrofolate reductase

>  <assay_chembl_id>  (410) 
CHEMBL1044822

>  <standard_relation>  (410) 
=

>  <assay_description>  (410) 
Inhibition of human DHFR assessed as rate of NADPH consumption using dihydrofolate as substrate

>  <published_relation>  (410) 
=

>  <standard_value>  (410) 
2300

>  <qudt_units>  (410) 
http://www.openphacts.org/units/Nanomolar

>  <target_tax_id>  (410) 
9606

>  <bao_label>  (410) 
single protein format

>  <published_units>  (410) 
uM

>  <pchembl_value>  (410) 
5.64

>  <published_type>  (410) 
IC50

>  <activity_comment>  (410) 
None

$$$$

     RDKit          

 28 30  0  0  0  0  0  0  0  0999 V2000
    0.0000    0.0000    0.0000 C   0  0  0  0  0  0  0  0  0  0  0  0
    0.0000    0.0000    0.0000 O   0  0  0  0  0  0  0  0  0  0  0  0
    0.0000    0.0000    0.0000 C   0  0  0  0  0  0  0  0  0  0  0  0
    0.0000    0.0000    0.0000 C   0  0  0  0  0  0  0  0  0  0  0  0
    0.0000    0.0000    0.0000 C   0  0  0  0  0  0  0  0  0  0  0  0
    0.0000    0.0000    0.0000 C   0  0  0  0  0  0  0  0  0  0  0  0
    0.0000    0.0000    0.0000 C   0  0  0  0  0  0  0  0  0  0  0  0
    0.0000    0.0000    0.0000 C   0  0  0  0  0  0  0  0  0  0  0  0
    0.0000    0.0000    0.0000 C   0  0  0  0  0  0  0  0  0  0  0  0
    0.0000    0.0000    0.0000 C   0  0  0  0  0  0  0  0  0  0  0  0
    0.0000    0.0000    0.0000 C   0  0  0  0  0  0  0  0  0  0  0  0
    0.0000    0.0000    0.0000 N   0  0  0  0  0  0  0  0  0  0  0  0
    0.0000    0.0000    0.0000 C   0  0  0  0  0  0  0  0  0  0  0  0
    0.0000    0.0000    0.0000 N   0  0  0  0  0  0  0  0  0  0  0  0
    0.0000    0.0000    0.0000 N   0  0  0  0  0  0  0  0  0  0  0  0
    0.0000    0.0000    0.0000 C   0  0  0  0  0  0  0  0  0  0  0  0
    0.0000    0.0000    0.0000 N   0  0  0  0  0  0  0  0  0  0  0  0
    0.0000    0.0000    0.0000 C   0  0  0  0  0  0  0  0  0  0  0  0
    0.0000    0.0000    0.0000 C   0  0  0  0  0  0  0  0  0  0  0  0
    0.0000    0.0000    0.0000 C   0  0  0  0  0  0  0  0  0  0  0  0
    0.0000    0.0000    0.0000 C   0  0  0  0  0  0  0  0  0  0  0  0
    0.0000    0.0000    0.0000 C   0  0  0  0  0  0  0  0  0  0  0  0
    0.0000    0.0000    0.0000 C   0  0  0  0  0  0  0  0  0  0  0  0
    0.0000    0.0000    0.0000 C   0  0  0  0  0  0  0  0  0  0  0  0
    0.0000    0.0000    0.0000 C   0  0  0  0  0  0  0  0  0  0  0  0
    0.0000    0.0000    0.0000 C   0  0  0  0  0  0  0  0  0  0  0  0
    0.0000    0.0000    0.0000 C   0  0  0  0  0  0  0  0  0  0  0  0
    0.0000    0.0000    0.0000 C   0  0  0  0  0  0  0  0  0  0  0  0
  1  2  1  0
  2  3  1  0
  3  4  2  0
  4  5  1  0
  5  6  1  0
  6  7  1  0
  7  8  3  0
  8  9  1  0
  9 10  2  0
 10 11  1  0
 10 12  1  0
 12 13  2  0
 13 14  1  0
 13 15  1  0
 15 16  2  0
 16 17  1  0
  5 18  2  0
 18 19  1  0
 19 20  2  0
 19 21  1  0
 21 22  2  0
 22 23  1  0
 22 24  1  0
 24 25  2  0
 25 26  1  0
 26 27  2  0
 27 28  1  0
 20  3  1  0
 16  9  1  0
 27 21  1  0
M  END
>  <pIC50>  (411) 
5.8

>  <ChEMBL_ID>  (411) 
CHEMBL572717

>  <document_journal>  (411) 
Bioorg. Med. Chem.

>  <bao_endpoint>  (411) 
BAO_0000190

>  <potential_duplicate>  (411) 
False

>  <uo_units>  (411) 
UO_0000065

>  <canonical_smiles>  (411) 
COc1cc(CC#Cc2c(C)nc(N)nc2N)cc(c1)c3c(C)cccc3C

>  <parent_molecule_chembl_id>  (411) 
CHEMBL572717

>  <assay_type>  (411) 
B

>  <src_id>  (411) 
1

>  <ligand_efficiency>  (411) 
{u'le': u'0.28', u'bei': u'15.58', u'sei': u'6.66', u'lle': u'0.86'}

>  <standard_flag>  (411) 
True

>  <molecule_chembl_id>  (411) 
CHEMBL572717

>  <target_organism>  (411) 
Homo sapiens

>  <standard_units>  (411) 
nM

>  <record_id>  (411) 
846587

>  <document_chembl_id>  (411) 
CHEMBL1154109

>  <bao_format>  (411) 
BAO_0000357

>  <data_validity_description>  (411) 
None

>  <activity_id>  (411) 
2913116

>  <standard_type>  (411) 
IC50

>  <target_chembl_id>  (411) 
CHEMBL202

>  <data_validity_comment>  (411) 
None

>  <published_value>  (411) 
1.58

>  <document_year>  (411) 
2009

>  <target_pref_name>  (411) 
Dihydrofolate reductase

>  <assay_chembl_id>  (411) 
CHEMBL1044822

>  <standard_relation>  (411) 
=

>  <assay_description>  (411) 
Inhibition of human DHFR assessed as rate of NADPH consumption using dihydrofolate as substrate

>  <published_relation>  (411) 
=

>  <standard_value>  (411) 
1580

>  <qudt_units>  (411) 
http://www.openphacts.org/units/Nanomolar

>  <target_tax_id>  (411) 
9606

>  <bao_label>  (411) 
single protein format

>  <published_units>  (411) 
uM

>  <pchembl_value>  (411) 
5.8

>  <published_type>  (411) 
IC50

>  <activity_comment>  (411) 
None

$$$$

     RDKit          

 28 30  0  0  0  0  0  0  0  0999 V2000
    0.0000    0.0000    0.0000 C   0  0  0  0  0  0  0  0  0  0  0  0
    0.0000    0.0000    0.0000 O   0  0  0  0  0  0  0  0  0  0  0  0
    0.0000    0.0000    0.0000 C   0  0  0  0  0  0  0  0  0  0  0  0
    0.0000    0.0000    0.0000 C   0  0  0  0  0  0  0  0  0  0  0  0
    0.0000    0.0000    0.0000 C   0  0  0  0  0  0  0  0  0  0  0  0
    0.0000    0.0000    0.0000 C   0  0  0  0  0  0  0  0  0  0  0  0
    0.0000    0.0000    0.0000 C   0  0  0  0  0  0  0  0  0  0  0  0
    0.0000    0.0000    0.0000 C   0  0  0  0  0  0  0  0  0  0  0  0
    0.0000    0.0000    0.0000 C   0  0  0  0  0  0  0  0  0  0  0  0
    0.0000    0.0000    0.0000 C   0  0  0  0  0  0  0  0  0  0  0  0
    0.0000    0.0000    0.0000 C   0  0  0  0  0  0  0  0  0  0  0  0
    0.0000    0.0000    0.0000 C   0  0  0  0  0  0  0  0  0  0  0  0
    0.0000    0.0000    0.0000 C   0  0  0  0  0  0  0  0  0  0  0  0
    0.0000    0.0000    0.0000 C   0  0  0  0  0  0  0  0  0  0  0  0
    0.0000    0.0000    0.0000 C   0  0  0  0  0  0  0  0  0  0  0  0
    0.0000    0.0000    0.0000 C   0  0  0  0  0  0  0  0  0  0  0  0
    0.0000    0.0000    0.0000 C   0  0  0  0  0  0  0  0  0  0  0  0
    0.0000    0.0000    0.0000 C   0  0  0  0  0  0  0  0  0  0  0  0
    0.0000    0.0000    0.0000 C   0  0  0  0  0  0  0  0  0  0  0  0
    0.0000    0.0000    0.0000 C   0  0  0  0  0  0  0  0  0  0  0  0
    0.0000    0.0000    0.0000 C   0  0  0  0  0  0  0  0  0  0  0  0
    0.0000    0.0000    0.0000 C   0  0  0  0  0  0  0  0  0  0  0  0
    0.0000    0.0000    0.0000 N   0  0  0  0  0  0  0  0  0  0  0  0
    0.0000    0.0000    0.0000 C   0  0  0  0  0  0  0  0  0  0  0  0
    0.0000    0.0000    0.0000 N   0  0  0  0  0  0  0  0  0  0  0  0
    0.0000    0.0000    0.0000 N   0  0  0  0  0  0  0  0  0  0  0  0
    0.0000    0.0000    0.0000 C   0  0  0  0  0  0  0  0  0  0  0  0
    0.0000    0.0000    0.0000 N   0  0  0  0  0  0  0  0  0  0  0  0
  1  2  1  0
  2  3  1  0
  3  4  2  0
  4  5  1  0
  5  6  2  0
  6  7  1  0
  7  8  2  0
  7  9  1  0
  9 10  2  0
 10 11  1  0
 11 12  2  0
 12 13  1  0
 12 14  1  0
 14 15  2  0
  5 16  1  0
 16 17  1  0
 16 18  1  0
 18 19  3  0
 19 20  1  0
 20 21  2  0
 21 22  1  0
 21 23  1  0
 23 24  2  0
 24 25  1  0
 24 26  1  0
 26 27  2  0
 27 28  1  0
  8  3  1  0
 15  9  1  0
 27 20  1  0
M  END
>  <pIC50>  (412) 
5.85

>  <ChEMBL_ID>  (412) 
CHEMBL584391

>  <document_journal>  (412) 
Bioorg. Med. Chem.

>  <bao_endpoint>  (412) 
BAO_0000190

>  <potential_duplicate>  (412) 
False

>  <uo_units>  (412) 
UO_0000065

>  <canonical_smiles>  (412) 
COc1cc(cc(c1)c2ccc(C)cc2)C(C)C#Cc3c(C)nc(N)nc3N

>  <parent_molecule_chembl_id>  (412) 
CHEMBL584391

>  <assay_type>  (412) 
B

>  <src_id>  (412) 
1

>  <ligand_efficiency>  (412) 
{u'le': u'0.29', u'bei': u'15.71', u'sei': u'6.72', u'lle': u'1.14'}

>  <standard_flag>  (412) 
True

>  <molecule_chembl_id>  (412) 
CHEMBL584391

>  <target_organism>  (412) 
Homo sapiens

>  <standard_units>  (412) 
nM

>  <record_id>  (412) 
846601

>  <document_chembl_id>  (412) 
CHEMBL1154109

>  <bao_format>  (412) 
BAO_0000357

>  <data_validity_description>  (412) 
None

>  <activity_id>  (412) 
2913117

>  <standard_type>  (412) 
IC50

>  <target_chembl_id>  (412) 
CHEMBL202

>  <data_validity_comment>  (412) 
None

>  <published_value>  (412) 
1.41

>  <document_year>  (412) 
2009

>  <target_pref_name>  (412) 
Dihydrofolate reductase

>  <assay_chembl_id>  (412) 
CHEMBL1044822

>  <standard_relation>  (412) 
=

>  <assay_description>  (412) 
Inhibition of human DHFR assessed as rate of NADPH consumption using dihydrofolate as substrate

>  <published_relation>  (412) 
=

>  <standard_value>  (412) 
1410

>  <qudt_units>  (412) 
http://www.openphacts.org/units/Nanomolar

>  <target_tax_id>  (412) 
9606

>  <bao_label>  (412) 
single protein format

>  <published_units>  (412) 
uM

>  <pchembl_value>  (412) 
5.85

>  <published_type>  (412) 
IC50

>  <activity_comment>  (412) 
None

$$$$

     RDKit          

 29 31  0  0  0  0  0  0  0  0999 V2000
    0.0000    0.0000    0.0000 C   0  0  0  0  0  0  0  0  0  0  0  0
    0.0000    0.0000    0.0000 O   0  0  0  0  0  0  0  0  0  0  0  0
    0.0000    0.0000    0.0000 C   0  0  0  0  0  0  0  0  0  0  0  0
    0.0000    0.0000    0.0000 C   0  0  0  0  0  0  0  0  0  0  0  0
    0.0000    0.0000    0.0000 C   0  0  0  0  0  0  0  0  0  0  0  0
    0.0000    0.0000    0.0000 C   0  0  0  0  0  0  0  0  0  0  0  0
    0.0000    0.0000    0.0000 C   0  0  0  0  0  0  0  0  0  0  0  0
    0.0000    0.0000    0.0000 C   0  0  0  0  0  0  0  0  0  0  0  0
    0.0000    0.0000    0.0000 C   0  0  0  0  0  0  0  0  0  0  0  0
    0.0000    0.0000    0.0000 C   0  0  0  0  0  0  0  0  0  0  0  0
    0.0000    0.0000    0.0000 C   0  0  0  0  0  0  0  0  0  0  0  0
    0.0000    0.0000    0.0000 C   0  0  0  0  0  0  0  0  0  0  0  0
    0.0000    0.0000    0.0000 C   0  0  0  0  0  0  0  0  0  0  0  0
    0.0000    0.0000    0.0000 C   0  0  0  0  0  0  0  0  0  0  0  0
    0.0000    0.0000    0.0000 C   0  0  0  0  0  0  0  0  0  0  0  0
    0.0000    0.0000    0.0000 C   0  0  0  0  0  0  0  0  0  0  0  0
    0.0000    0.0000    0.0000 C   0  0  0  0  0  0  0  0  0  0  0  0
    0.0000    0.0000    0.0000 C   0  0  0  0  0  0  0  0  0  0  0  0
    0.0000    0.0000    0.0000 C   0  0  0  0  0  0  0  0  0  0  0  0
    0.0000    0.0000    0.0000 C   0  0  0  0  0  0  0  0  0  0  0  0
    0.0000    0.0000    0.0000 C   0  0  0  0  0  0  0  0  0  0  0  0
    0.0000    0.0000    0.0000 C   0  0  0  0  0  0  0  0  0  0  0  0
    0.0000    0.0000    0.0000 C   0  0  0  0  0  0  0  0  0  0  0  0
    0.0000    0.0000    0.0000 N   0  0  0  0  0  0  0  0  0  0  0  0
    0.0000    0.0000    0.0000 C   0  0  0  0  0  0  0  0  0  0  0  0
    0.0000    0.0000    0.0000 N   0  0  0  0  0  0  0  0  0  0  0  0
    0.0000    0.0000    0.0000 N   0  0  0  0  0  0  0  0  0  0  0  0
    0.0000    0.0000    0.0000 C   0  0  0  0  0  0  0  0  0  0  0  0
    0.0000    0.0000    0.0000 N   0  0  0  0  0  0  0  0  0  0  0  0
  1  2  1  0
  2  3  1  0
  3  4  2  0
  4  5  1  0
  5  6  2  0
  6  7  1  0
  7  8  2  0
  7  9  1  0
  9 10  2  0
 10 11  1  0
 11 12  1  0
 11 13  2  0
 13 14  1  0
 14 15  1  0
 14 16  2  0
  5 17  1  0
 17 18  1  0
 17 19  1  0
 19 20  3  0
 20 21  1  0
 21 22  2  0
 22 23  1  0
 22 24  1  0
 24 25  2  0
 25 26  1  0
 25 27  1  0
 27 28  2  0
 28 29  1  0
  8  3  1  0
 16  9  1  0
 28 21  1  0
M  END
>  <pIC50>  (413) 
6.13

>  <ChEMBL_ID>  (413) 
CHEMBL575217

>  <document_journal>  (413) 
Bioorg. Med. Chem.

>  <bao_endpoint>  (413) 
BAO_0000190

>  <potential_duplicate>  (413) 
False

>  <uo_units>  (413) 
UO_0000065

>  <canonical_smiles>  (413) 
COc1cc(cc(c1)c2cc(C)cc(C)c2)C(C)C#Cc3c(C)nc(N)nc3N

>  <parent_molecule_chembl_id>  (413) 
CHEMBL575217

>  <assay_type>  (413) 
B

>  <src_id>  (413) 
1

>  <ligand_efficiency>  (413) 
{u'le': u'0.29', u'bei': u'15.85', u'sei': u'7.04', u'lle': u'0.93'}

>  <standard_flag>  (413) 
True

>  <molecule_chembl_id>  (413) 
CHEMBL575217

>  <target_organism>  (413) 
Homo sapiens

>  <standard_units>  (413) 
nM

>  <record_id>  (413) 
846654

>  <document_chembl_id>  (413) 
CHEMBL1154109

>  <bao_format>  (413) 
BAO_0000357

>  <data_validity_description>  (413) 
None

>  <activity_id>  (413) 
2913118

>  <standard_type>  (413) 
IC50

>  <target_chembl_id>  (413) 
CHEMBL202

>  <data_validity_comment>  (413) 
None

>  <published_value>  (413) 
0.75

>  <document_year>  (413) 
2009

>  <target_pref_name>  (413) 
Dihydrofolate reductase

>  <assay_chembl_id>  (413) 
CHEMBL1044822

>  <standard_relation>  (413) 
=

>  <assay_description>  (413) 
Inhibition of human DHFR assessed as rate of NADPH consumption using dihydrofolate as substrate

>  <published_relation>  (413) 
=

>  <standard_value>  (413) 
750

>  <qudt_units>  (413) 
http://www.openphacts.org/units/Nanomolar

>  <target_tax_id>  (413) 
9606

>  <bao_label>  (413) 
single protein format

>  <published_units>  (413) 
uM

>  <pchembl_value>  (413) 
6.13

>  <published_type>  (413) 
IC50

>  <activity_comment>  (413) 
None

$$$$

     RDKit          

 31 33  0  0  0  0  0  0  0  0999 V2000
    0.0000    0.0000    0.0000 C   0  0  0  0  0  0  0  0  0  0  0  0
    0.0000    0.0000    0.0000 O   0  0  0  0  0  0  0  0  0  0  0  0
    0.0000    0.0000    0.0000 C   0  0  0  0  0  0  0  0  0  0  0  0
    0.0000    0.0000    0.0000 C   0  0  0  0  0  0  0  0  0  0  0  0
    0.0000    0.0000    0.0000 C   0  0  0  0  0  0  0  0  0  0  0  0
    0.0000    0.0000    0.0000 C   0  0  0  0  0  0  0  0  0  0  0  0
    0.0000    0.0000    0.0000 C   0  0  0  0  0  0  0  0  0  0  0  0
    0.0000    0.0000    0.0000 C   0  0  0  0  0  0  0  0  0  0  0  0
    0.0000    0.0000    0.0000 C   0  0  0  0  0  0  0  0  0  0  0  0
    0.0000    0.0000    0.0000 C   0  0  0  0  0  0  0  0  0  0  0  0
    0.0000    0.0000    0.0000 C   0  0  0  0  0  0  0  0  0  0  0  0
    0.0000    0.0000    0.0000 C   0  0  0  0  0  0  0  0  0  0  0  0
    0.0000    0.0000    0.0000 C   0  0  0  0  0  0  0  0  0  0  0  0
    0.0000    0.0000    0.0000 C   0  0  0  0  0  0  0  0  0  0  0  0
    0.0000    0.0000    0.0000 C   0  0  0  0  0  0  0  0  0  0  0  0
    0.0000    0.0000    0.0000 C   0  0  0  0  0  0  0  0  0  0  0  0
    0.0000    0.0000    0.0000 C   0  0  0  0  0  0  0  0  0  0  0  0
    0.0000    0.0000    0.0000 C   0  0  0  0  0  0  0  0  0  0  0  0
    0.0000    0.0000    0.0000 C   0  0  0  0  0  0  0  0  0  0  0  0
    0.0000    0.0000    0.0000 C   0  0  0  0  0  0  0  0  0  0  0  0
    0.0000    0.0000    0.0000 C   0  0  0  0  0  0  0  0  0  0  0  0
    0.0000    0.0000    0.0000 C   0  0  0  0  0  0  0  0  0  0  0  0
    0.0000    0.0000    0.0000 C   0  0  0  0  0  0  0  0  0  0  0  0
    0.0000    0.0000    0.0000 C   0  0  0  0  0  0  0  0  0  0  0  0
    0.0000    0.0000    0.0000 C   0  0  0  0  0  0  0  0  0  0  0  0
    0.0000    0.0000    0.0000 N   0  0  0  0  0  0  0  0  0  0  0  0
    0.0000    0.0000    0.0000 C   0  0  0  0  0  0  0  0  0  0  0  0
    0.0000    0.0000    0.0000 N   0  0  0  0  0  0  0  0  0  0  0  0
    0.0000    0.0000    0.0000 N   0  0  0  0  0  0  0  0  0  0  0  0
    0.0000    0.0000    0.0000 C   0  0  0  0  0  0  0  0  0  0  0  0
    0.0000    0.0000    0.0000 N   0  0  0  0  0  0  0  0  0  0  0  0
  1  2  1  0
  2  3  1  0
  3  4  2  0
  4  5  1  0
  5  6  2  0
  6  7  1  0
  7  8  2  0
  7  9  1  0
  9 10  2  0
 10 11  1  0
 11 12  2  0
 12 13  1  0
 13 14  2  0
 12 15  1  0
 15 16  1  0
 15 17  1  0
 15 18  1  0
  5 19  1  0
 19 20  1  0
 19 21  1  0
 21 22  3  0
 22 23  1  0
 23 24  2  0
 24 25  1  0
 24 26  1  0
 26 27  2  0
 27 28  1  0
 27 29  1  0
 29 30  2  0
 30 31  1  0
  8  3  1  0
 14  9  1  0
 30 23  1  0
M  END
>  <pIC50>  (414) 
6.68

>  <ChEMBL_ID>  (414) 
CHEMBL578424

>  <document_journal>  (414) 
Bioorg. Med. Chem.

>  <bao_endpoint>  (414) 
BAO_0000190

>  <potential_duplicate>  (414) 
False

>  <uo_units>  (414) 
UO_0000065

>  <canonical_smiles>  (414) 
COc1cc(cc(c1)c2ccc(cc2)C(C)(C)C)C(C)C#Cc3c(C)nc(N)nc3N

>  <parent_molecule_chembl_id>  (414) 
CHEMBL578424

>  <assay_type>  (414) 
B

>  <src_id>  (414) 
1

>  <ligand_efficiency>  (414) 
{u'le': u'0.29', u'bei': u'16.11', u'sei': u'7.67', u'lle': u'1.06'}

>  <standard_flag>  (414) 
True

>  <molecule_chembl_id>  (414) 
CHEMBL578424

>  <target_organism>  (414) 
Homo sapiens

>  <standard_units>  (414) 
nM

>  <record_id>  (414) 
846661

>  <document_chembl_id>  (414) 
CHEMBL1154109

>  <bao_format>  (414) 
BAO_0000357

>  <data_validity_description>  (414) 
None

>  <activity_id>  (414) 
2913119

>  <standard_type>  (414) 
IC50

>  <target_chembl_id>  (414) 
CHEMBL202

>  <data_validity_comment>  (414) 
None

>  <published_value>  (414) 
0.21

>  <document_year>  (414) 
2009

>  <target_pref_name>  (414) 
Dihydrofolate reductase

>  <assay_chembl_id>  (414) 
CHEMBL1044822

>  <standard_relation>  (414) 
=

>  <assay_description>  (414) 
Inhibition of human DHFR assessed as rate of NADPH consumption using dihydrofolate as substrate

>  <published_relation>  (414) 
=

>  <standard_value>  (414) 
210

>  <qudt_units>  (414) 
http://www.openphacts.org/units/Nanomolar

>  <target_tax_id>  (414) 
9606

>  <bao_label>  (414) 
single protein format

>  <published_units>  (414) 
uM

>  <pchembl_value>  (414) 
6.68

>  <published_type>  (414) 
IC50

>  <activity_comment>  (414) 
None

$$$$

     RDKit          

 22 24  0  0  0  0  0  0  0  0999 V2000
    0.0000    0.0000    0.0000 C   0  0  0  0  0  0  0  0  0  0  0  0
    0.0000    0.0000    0.0000 O   0  0  0  0  0  0  0  0  0  0  0  0
    0.0000    0.0000    0.0000 C   0  0  0  0  0  0  0  0  0  0  0  0
    0.0000    0.0000    0.0000 C   0  0  0  0  0  0  0  0  0  0  0  0
    0.0000    0.0000    0.0000 C   0  0  0  0  0  0  0  0  0  0  0  0
    0.0000    0.0000    0.0000 C   0  0  0  0  0  0  0  0  0  0  0  0
    0.0000    0.0000    0.0000 C   0  0  0  0  0  0  0  0  0  0  0  0
    0.0000    0.0000    0.0000 C   0  0  0  0  0  0  0  0  0  0  0  0
    0.0000    0.0000    0.0000 C   0  0  0  0  0  0  0  0  0  0  0  0
    0.0000    0.0000    0.0000 C   0  0  0  0  0  0  0  0  0  0  0  0
    0.0000    0.0000    0.0000 C   0  0  0  0  0  0  0  0  0  0  0  0
    0.0000    0.0000    0.0000 C   0  0  0  0  0  0  0  0  0  0  0  0
    0.0000    0.0000    0.0000 O   0  0  0  0  0  0  0  0  0  0  0  0
    0.0000    0.0000    0.0000 C   0  0  0  0  0  0  0  0  0  0  0  0
    0.0000    0.0000    0.0000 N   0  0  0  0  0  0  0  0  0  0  0  0
    0.0000    0.0000    0.0000 C   0  0  0  0  0  0  0  0  0  0  0  0
    0.0000    0.0000    0.0000 N   0  0  0  0  0  0  0  0  0  0  0  0
    0.0000    0.0000    0.0000 N   0  0  0  0  0  0  0  0  0  0  0  0
    0.0000    0.0000    0.0000 C   0  0  0  0  0  0  0  0  0  0  0  0
    0.0000    0.0000    0.0000 N   0  0  0  0  0  0  0  0  0  0  0  0
    0.0000    0.0000    0.0000 C   0  0  0  0  0  0  0  0  0  0  0  0
    0.0000    0.0000    0.0000 C   0  0  0  0  0  0  0  0  0  0  0  0
  1  2  1  0
  2  3  1  0
  3  4  2  0
  4  5  1  0
  5  6  2  0
  6  7  1  0
  7  8  2  0
  8  9  1  0
  9 10  2  0
 10 11  1  0
 11 12  2  0
 12 13  1  0
 13 14  1  0
 14 15  2  0
 15 16  1  0
 16 17  1  0
 16 18  2  0
 18 19  1  0
 19 20  1  0
 19 21  2  0
  9 22  1  0
  8  3  1  0
 21 11  1  0
 21 14  1  0
M  END
>  <pIC50>  (415) 
5.72

>  <ChEMBL_ID>  (415) 
CHEMBL606039

>  <document_journal>  (415) 
Bioorg. Med. Chem.

>  <bao_endpoint>  (415) 
BAO_0000190

>  <potential_duplicate>  (415) 
False

>  <uo_units>  (415) 
UO_0000065

>  <canonical_smiles>  (415) 
COc1ccccc1\C(=C/c2coc3nc(N)nc(N)c23)\C

>  <parent_molecule_chembl_id>  (415) 
CHEMBL606039

>  <assay_type>  (415) 
B

>  <src_id>  (415) 
1

>  <ligand_efficiency>  (415) 
{u'le': u'0.36', u'bei': u'19.31', u'sei': u'5.71', u'lle': u'3.18'}

>  <standard_flag>  (415) 
True

>  <molecule_chembl_id>  (415) 
CHEMBL606039

>  <target_organism>  (415) 
Homo sapiens

>  <standard_units>  (415) 
nM

>  <record_id>  (415) 
876525

>  <document_chembl_id>  (415) 
CHEMBL1152608

>  <bao_format>  (415) 
BAO_0000357

>  <data_validity_description>  (415) 
None

>  <activity_id>  (415) 
3055994

>  <standard_type>  (415) 
IC50

>  <target_chembl_id>  (415) 
CHEMBL202

>  <data_validity_comment>  (415) 
None

>  <published_value>  (415) 
1.9

>  <document_year>  (415) 
2009

>  <target_pref_name>  (415) 
Dihydrofolate reductase

>  <assay_chembl_id>  (415) 
CHEMBL1038903

>  <standard_relation>  (415) 
=

>  <assay_description>  (415) 
Inhibition of human DHFR in presence of saturating levels of NADPH and DHFA

>  <published_relation>  (415) 
=

>  <standard_value>  (415) 
1900

>  <qudt_units>  (415) 
http://www.openphacts.org/units/Nanomolar

>  <target_tax_id>  (415) 
9606

>  <bao_label>  (415) 
single protein format

>  <published_units>  (415) 
uM

>  <pchembl_value>  (415) 
5.72

>  <published_type>  (415) 
IC50

>  <activity_comment>  (415) 
None

$$$$

     RDKit          

 24 27  0  0  0  0  0  0  0  0999 V2000
    0.0000    0.0000    0.0000 C   0  0  0  0  0  0  0  0  0  0  0  0
    0.0000    0.0000    0.0000 O   0  0  0  0  0  0  0  0  0  0  0  0
    0.0000    0.0000    0.0000 C   0  0  0  0  0  0  0  0  0  0  0  0
    0.0000    0.0000    0.0000 C   0  0  0  0  0  0  0  0  0  0  0  0
    0.0000    0.0000    0.0000 C   0  0  0  0  0  0  0  0  0  0  0  0
    0.0000    0.0000    0.0000 C   0  0  0  0  0  0  0  0  0  0  0  0
    0.0000    0.0000    0.0000 C   0  0  0  0  0  0  0  0  0  0  0  0
    0.0000    0.0000    0.0000 C   0  0  0  0  0  0  0  0  0  0  0  0
    0.0000    0.0000    0.0000 C   0  0  0  0  0  0  0  0  0  0  0  0
    0.0000    0.0000    0.0000 C   0  0  0  0  0  0  0  0  0  0  0  0
    0.0000    0.0000    0.0000 C   0  0  0  0  0  0  0  0  0  0  0  0
    0.0000    0.0000    0.0000 C   0  0  0  0  0  0  0  0  0  0  0  0
    0.0000    0.0000    0.0000 O   0  0  0  0  0  0  0  0  0  0  0  0
    0.0000    0.0000    0.0000 C   0  0  0  0  0  0  0  0  0  0  0  0
    0.0000    0.0000    0.0000 N   0  0  0  0  0  0  0  0  0  0  0  0
    0.0000    0.0000    0.0000 C   0  0  0  0  0  0  0  0  0  0  0  0
    0.0000    0.0000    0.0000 N   0  0  0  0  0  0  0  0  0  0  0  0
    0.0000    0.0000    0.0000 N   0  0  0  0  0  0  0  0  0  0  0  0
    0.0000    0.0000    0.0000 C   0  0  0  0  0  0  0  0  0  0  0  0
    0.0000    0.0000    0.0000 N   0  0  0  0  0  0  0  0  0  0  0  0
    0.0000    0.0000    0.0000 C   0  0  0  0  0  0  0  0  0  0  0  0
    0.0000    0.0000    0.0000 C   0  0  0  0  0  0  0  0  0  0  0  0
    0.0000    0.0000    0.0000 C   0  0  0  0  0  0  0  0  0  0  0  0
    0.0000    0.0000    0.0000 C   0  0  0  0  0  0  0  0  0  0  0  0
  1  2  1  0
  2  3  1  0
  3  4  2  0
  4  5  1  0
  5  6  2  0
  6  7  1  0
  7  8  2  0
  8  9  1  0
  9 10  1  0
 10 11  1  0
 11 12  2  0
 12 13  1  0
 13 14  1  0
 14 15  2  0
 15 16  1  0
 16 17  1  0
 16 18  2  0
 18 19  1  0
 19 20  1  0
 19 21  2  0
  9 22  1  0
 22 23  1  0
 23 24  1  0
  8  3  1  0
 21 11  1  0
 21 14  1  0
 24 22  1  0
M  END
>  <pIC50>  (416) 
5.3

>  <ChEMBL_ID>  (416) 
CHEMBL603198

>  <document_journal>  (416) 
Bioorg. Med. Chem.

>  <bao_endpoint>  (416) 
BAO_0000190

>  <potential_duplicate>  (416) 
False

>  <uo_units>  (416) 
UO_0000065

>  <canonical_smiles>  (416) 
COc1ccccc1C(Cc2coc3nc(N)nc(N)c23)C4CC4

>  <parent_molecule_chembl_id>  (416) 
CHEMBL603198

>  <assay_type>  (416) 
B

>  <src_id>  (416) 
1

>  <ligand_efficiency>  (416) 
{u'le': u'0.3', u'bei': u'16.34', u'sei': u'5.29', u'lle': u'2.18'}

>  <standard_flag>  (416) 
True

>  <molecule_chembl_id>  (416) 
CHEMBL603198

>  <target_organism>  (416) 
Homo sapiens

>  <standard_units>  (416) 
nM

>  <record_id>  (416) 
876656

>  <document_chembl_id>  (416) 
CHEMBL1152608

>  <bao_format>  (416) 
BAO_0000357

>  <data_validity_description>  (416) 
None

>  <activity_id>  (416) 
3056022

>  <standard_type>  (416) 
IC50

>  <target_chembl_id>  (416) 
CHEMBL202

>  <data_validity_comment>  (416) 
None

>  <published_value>  (416) 
5.01

>  <document_year>  (416) 
2009

>  <target_pref_name>  (416) 
Dihydrofolate reductase

>  <assay_chembl_id>  (416) 
CHEMBL1038903

>  <standard_relation>  (416) 
=

>  <assay_description>  (416) 
Inhibition of human DHFR in presence of saturating levels of NADPH and DHFA

>  <published_relation>  (416) 
=

>  <standard_value>  (416) 
5010

>  <qudt_units>  (416) 
http://www.openphacts.org/units/Nanomolar

>  <target_tax_id>  (416) 
9606

>  <bao_label>  (416) 
single protein format

>  <published_units>  (416) 
uM

>  <pchembl_value>  (416) 
5.3

>  <published_type>  (416) 
IC50

>  <activity_comment>  (416) 
None

$$$$

     RDKit          

 24 26  0  0  0  0  0  0  0  0999 V2000
    0.0000    0.0000    0.0000 C   0  0  0  0  0  0  0  0  0  0  0  0
    0.0000    0.0000    0.0000 O   0  0  0  0  0  0  0  0  0  0  0  0
    0.0000    0.0000    0.0000 C   0  0  0  0  0  0  0  0  0  0  0  0
    0.0000    0.0000    0.0000 C   0  0  0  0  0  0  0  0  0  0  0  0
    0.0000    0.0000    0.0000 C   0  0  0  0  0  0  0  0  0  0  0  0
    0.0000    0.0000    0.0000 C   0  0  0  0  0  0  0  0  0  0  0  0
    0.0000    0.0000    0.0000 C   0  0  0  0  0  0  0  0  0  0  0  0
    0.0000    0.0000    0.0000 C   0  0  0  0  0  0  0  0  0  0  0  0
    0.0000    0.0000    0.0000 C   0  0  0  0  0  0  0  0  0  0  0  0
    0.0000    0.0000    0.0000 C   0  0  0  0  0  0  0  0  0  0  0  0
    0.0000    0.0000    0.0000 C   0  0  0  0  0  0  0  0  0  0  0  0
    0.0000    0.0000    0.0000 C   0  0  0  0  0  0  0  0  0  0  0  0
    0.0000    0.0000    0.0000 O   0  0  0  0  0  0  0  0  0  0  0  0
    0.0000    0.0000    0.0000 C   0  0  0  0  0  0  0  0  0  0  0  0
    0.0000    0.0000    0.0000 N   0  0  0  0  0  0  0  0  0  0  0  0
    0.0000    0.0000    0.0000 C   0  0  0  0  0  0  0  0  0  0  0  0
    0.0000    0.0000    0.0000 N   0  0  0  0  0  0  0  0  0  0  0  0
    0.0000    0.0000    0.0000 N   0  0  0  0  0  0  0  0  0  0  0  0
    0.0000    0.0000    0.0000 C   0  0  0  0  0  0  0  0  0  0  0  0
    0.0000    0.0000    0.0000 N   0  0  0  0  0  0  0  0  0  0  0  0
    0.0000    0.0000    0.0000 C   0  0  0  0  0  0  0  0  0  0  0  0
    0.0000    0.0000    0.0000 C   0  0  0  0  0  0  0  0  0  0  0  0
    0.0000    0.0000    0.0000 C   0  0  0  0  0  0  0  0  0  0  0  0
    0.0000    0.0000    0.0000 C   0  0  0  0  0  0  0  0  0  0  0  0
  1  2  1  0
  2  3  1  0
  3  4  2  0
  4  5  1  0
  5  6  2  0
  6  7  1  0
  7  8  2  0
  8  9  1  0
  9 10  1  0
 10 11  1  0
 11 12  2  0
 12 13  1  0
 13 14  1  0
 14 15  2  0
 15 16  1  0
 16 17  1  0
 16 18  2  0
 18 19  1  0
 19 20  1  0
 19 21  2  0
  9 22  1  0
 22 23  1  0
 22 24  1  0
  8  3  1  0
 21 11  1  0
 21 14  1  0
M  END
>  <pIC50>  (417) 
5.29

>  <ChEMBL_ID>  (417) 
CHEMBL595757

>  <document_journal>  (417) 
Bioorg. Med. Chem.

>  <bao_endpoint>  (417) 
BAO_0000190

>  <potential_duplicate>  (417) 
False

>  <uo_units>  (417) 
UO_0000065

>  <canonical_smiles>  (417) 
COc1ccccc1C(Cc2coc3nc(N)nc(N)c23)C(C)C

>  <parent_molecule_chembl_id>  (417) 
CHEMBL595757

>  <assay_type>  (417) 
B

>  <src_id>  (417) 
1

>  <ligand_efficiency>  (417) 
{u'le': u'0.3', u'bei': u'16.22', u'sei': u'5.28', u'lle': u'1.79'}

>  <standard_flag>  (417) 
True

>  <molecule_chembl_id>  (417) 
CHEMBL595757

>  <target_organism>  (417) 
Homo sapiens

>  <standard_units>  (417) 
nM

>  <record_id>  (417) 
876655

>  <document_chembl_id>  (417) 
CHEMBL1152608

>  <bao_format>  (417) 
BAO_0000357

>  <data_validity_description>  (417) 
None

>  <activity_id>  (417) 
3056023

>  <standard_type>  (417) 
IC50

>  <target_chembl_id>  (417) 
CHEMBL202

>  <data_validity_comment>  (417) 
None

>  <published_value>  (417) 
5.09

>  <document_year>  (417) 
2009

>  <target_pref_name>  (417) 
Dihydrofolate reductase

>  <assay_chembl_id>  (417) 
CHEMBL1038903

>  <standard_relation>  (417) 
=

>  <assay_description>  (417) 
Inhibition of human DHFR in presence of saturating levels of NADPH and DHFA

>  <published_relation>  (417) 
=

>  <standard_value>  (417) 
5090

>  <qudt_units>  (417) 
http://www.openphacts.org/units/Nanomolar

>  <target_tax_id>  (417) 
9606

>  <bao_label>  (417) 
single protein format

>  <published_units>  (417) 
uM

>  <pchembl_value>  (417) 
5.29

>  <published_type>  (417) 
IC50

>  <activity_comment>  (417) 
None

$$$$

     RDKit          

 24 26  0  0  0  0  0  0  0  0999 V2000
    0.0000    0.0000    0.0000 N   0  0  0  0  0  0  0  0  0  0  0  0
    0.0000    0.0000    0.0000 C   0  0  0  0  0  0  0  0  0  0  0  0
    0.0000    0.0000    0.0000 N   0  0  0  0  0  0  0  0  0  0  0  0
    0.0000    0.0000    0.0000 N   0  0  0  0  0  0  0  0  0  0  0  0
    0.0000    0.0000    0.0000 C   0  0  0  0  0  0  0  0  0  0  0  0
    0.0000    0.0000    0.0000 O   0  0  0  0  0  0  0  0  0  0  0  0
    0.0000    0.0000    0.0000 C   0  0  0  0  0  0  0  0  0  0  0  0
    0.0000    0.0000    0.0000 C   0  0  0  0  0  0  0  0  0  0  0  0
    0.0000    0.0000    0.0000 C   0  0  0  0  0  0  0  0  0  0  0  0
    0.0000    0.0000    0.0000 C   0  0  0  0  0  0  0  0  0  0  0  0
    0.0000    0.0000    0.0000 N   0  0  0  0  0  0  0  0  0  0  0  0
    0.0000    0.0000    0.0000 C   0  0  0  0  0  0  0  0  0  0  0  0
    0.0000    0.0000    0.0000 C   0  0  0  0  0  0  0  0  0  0  0  0
    0.0000    0.0000    0.0000 C   0  0  0  0  0  0  0  0  0  0  0  0
    0.0000    0.0000    0.0000 C   0  0  0  0  0  0  0  0  0  0  0  0
    0.0000    0.0000    0.0000 C   0  0  0  0  0  0  0  0  0  0  0  0
    0.0000    0.0000    0.0000 C   0  0  0  0  0  0  0  0  0  0  0  0
    0.0000    0.0000    0.0000 C   0  0  0  0  0  0  0  0  0  0  0  0
    0.0000    0.0000    0.0000 C   0  0  0  0  0  0  0  0  0  0  0  0
    0.0000    0.0000    0.0000 C   0  0  0  0  0  0  0  0  0  0  0  0
    0.0000    0.0000    0.0000 O   0  0  0  0  0  0  0  0  0  0  0  0
    0.0000    0.0000    0.0000 C   0  0  0  0  0  0  0  0  0  0  0  0
    0.0000    0.0000    0.0000 C   0  0  0  0  0  0  0  0  0  0  0  0
    0.0000    0.0000    0.0000 C   0  0  0  0  0  0  0  0  0  0  0  0
  1  2  1  0
  2  3  2  0
  4  2  1  0
  5  4  2  0
  6  5  1  0
  7  5  1  0
  8  6  1  0
  9  7  2  0
  7 10  1  0
 10  8  2  0
  3  9  1  0
  9 11  1  0
 12 10  1  0
 13 12  2  3
 14 13  1  0
 13 15  1  0
 16 14  2  0
 14 17  1  0
 15 18  1  0
 15 19  1  0
 20 16  1  0
 21 17  1  0
 17 22  2  0
 23 20  2  0
 24 21  1  0
 22 23  1  0
M  END
>  <pIC50>  (418) 
5.2

>  <ChEMBL_ID>  (418) 
CHEMBL594810

>  <document_journal>  (418) 
Bioorg. Med. Chem.

>  <bao_endpoint>  (418) 
BAO_0000190

>  <potential_duplicate>  (418) 
False

>  <uo_units>  (418) 
UO_0000065

>  <canonical_smiles>  (418) 
COc1ccccc1C(=CC2=COC3=NC(=N)NC(=C23)N)C(C)C

>  <parent_molecule_chembl_id>  (418) 
CHEMBL594810

>  <assay_type>  (418) 
B

>  <src_id>  (418) 
1

>  <ligand_efficiency>  (418) 
{u'le': u'0.3', u'bei': u'16.02', u'sei': u'5.61', u'lle': u'2.74'}

>  <standard_flag>  (418) 
True

>  <molecule_chembl_id>  (418) 
CHEMBL594810

>  <target_organism>  (418) 
Homo sapiens

>  <standard_units>  (418) 
nM

>  <record_id>  (418) 
876546

>  <document_chembl_id>  (418) 
CHEMBL1152608

>  <bao_format>  (418) 
BAO_0000357

>  <data_validity_description>  (418) 
None

>  <activity_id>  (418) 
3056026

>  <standard_type>  (418) 
IC50

>  <target_chembl_id>  (418) 
CHEMBL202

>  <data_validity_comment>  (418) 
None

>  <published_value>  (418) 
6.35

>  <document_year>  (418) 
2009

>  <target_pref_name>  (418) 
Dihydrofolate reductase

>  <assay_chembl_id>  (418) 
CHEMBL1038903

>  <standard_relation>  (418) 
=

>  <assay_description>  (418) 
Inhibition of human DHFR in presence of saturating levels of NADPH and DHFA

>  <published_relation>  (418) 
=

>  <standard_value>  (418) 
6350

>  <qudt_units>  (418) 
http://www.openphacts.org/units/Nanomolar

>  <target_tax_id>  (418) 
9606

>  <bao_label>  (418) 
single protein format

>  <published_units>  (418) 
uM

>  <pchembl_value>  (418) 
5.2

>  <published_type>  (418) 
IC50

>  <activity_comment>  (418) 
None

$$$$

     RDKit          

 25 27  0  0  0  0  0  0  0  0999 V2000
    0.0000    0.0000    0.0000 N   0  0  0  0  0  0  0  0  0  0  0  0
    0.0000    0.0000    0.0000 C   0  0  0  0  0  0  0  0  0  0  0  0
    0.0000    0.0000    0.0000 N   0  0  0  0  0  0  0  0  0  0  0  0
    0.0000    0.0000    0.0000 N   0  0  0  0  0  0  0  0  0  0  0  0
    0.0000    0.0000    0.0000 C   0  0  0  0  0  0  0  0  0  0  0  0
    0.0000    0.0000    0.0000 O   0  0  0  0  0  0  0  0  0  0  0  0
    0.0000    0.0000    0.0000 C   0  0  0  0  0  0  0  0  0  0  0  0
    0.0000    0.0000    0.0000 C   0  0  0  0  0  0  0  0  0  0  0  0
    0.0000    0.0000    0.0000 C   0  0  0  0  0  0  0  0  0  0  0  0
    0.0000    0.0000    0.0000 C   0  0  0  0  0  0  0  0  0  0  0  0
    0.0000    0.0000    0.0000 N   0  0  0  0  0  0  0  0  0  0  0  0
    0.0000    0.0000    0.0000 C   0  0  0  0  0  0  0  0  0  0  0  0
    0.0000    0.0000    0.0000 C   0  0  0  0  0  0  0  0  0  0  0  0
    0.0000    0.0000    0.0000 C   0  0  0  0  0  0  0  0  0  0  0  0
    0.0000    0.0000    0.0000 C   0  0  0  0  0  0  0  0  0  0  0  0
    0.0000    0.0000    0.0000 C   0  0  0  0  0  0  0  0  0  0  0  0
    0.0000    0.0000    0.0000 C   0  0  0  0  0  0  0  0  0  0  0  0
    0.0000    0.0000    0.0000 C   0  0  0  0  0  0  0  0  0  0  0  0
    0.0000    0.0000    0.0000 C   0  0  0  0  0  0  0  0  0  0  0  0
    0.0000    0.0000    0.0000 C   0  0  0  0  0  0  0  0  0  0  0  0
    0.0000    0.0000    0.0000 C   0  0  0  0  0  0  0  0  0  0  0  0
    0.0000    0.0000    0.0000 C   0  0  0  0  0  0  0  0  0  0  0  0
    0.0000    0.0000    0.0000 O   0  0  0  0  0  0  0  0  0  0  0  0
    0.0000    0.0000    0.0000 C   0  0  0  0  0  0  0  0  0  0  0  0
    0.0000    0.0000    0.0000 C   0  0  0  0  0  0  0  0  0  0  0  0
  1  2  1  0
  2  3  2  0
  4  2  1  0
  5  4  2  0
  6  5  1  0
  7  5  1  0
  8  6  1  0
  9  7  2  0
  7 10  1  0
 10  8  2  0
  3  9  1  0
  9 11  1  0
 12 10  1  0
 13 12  2  3
 14 13  1  0
 13 15  1  0
 16 14  1  0
 14 17  1  0
 15 18  2  0
 19 15  1  0
 20 16  1  0
 18 21  1  0
 22 19  2  0
 19 23  1  0
 21 24  2  0
 24 22  1  0
 23 25  1  0
M  END
>  <pIC50>  (419) 
5.06

>  <ChEMBL_ID>  (419) 
CHEMBL603849

>  <document_journal>  (419) 
Bioorg. Med. Chem.

>  <bao_endpoint>  (419) 
BAO_0000190

>  <potential_duplicate>  (419) 
False

>  <uo_units>  (419) 
UO_0000065

>  <canonical_smiles>  (419) 
CCC(C)C(=CC1=COC2=NC(=N)NC(=C12)N)c3ccccc3OC

>  <parent_molecule_chembl_id>  (419) 
CHEMBL603849

>  <assay_type>  (419) 
B

>  <src_id>  (419) 
1

>  <ligand_efficiency>  (419) 
{u'le': u'0.28', u'bei': u'14.96', u'sei': u'5.46', u'lle': u'2.14'}

>  <standard_flag>  (419) 
True

>  <molecule_chembl_id>  (419) 
CHEMBL603849

>  <target_organism>  (419) 
Homo sapiens

>  <standard_units>  (419) 
nM

>  <record_id>  (419) 
876597

>  <document_chembl_id>  (419) 
CHEMBL1152608

>  <bao_format>  (419) 
BAO_0000357

>  <data_validity_description>  (419) 
None

>  <activity_id>  (419) 
3056030

>  <standard_type>  (419) 
IC50

>  <target_chembl_id>  (419) 
CHEMBL202

>  <data_validity_comment>  (419) 
None

>  <published_value>  (419) 
8.64

>  <document_year>  (419) 
2009

>  <target_pref_name>  (419) 
Dihydrofolate reductase

>  <assay_chembl_id>  (419) 
CHEMBL1038903

>  <standard_relation>  (419) 
=

>  <assay_description>  (419) 
Inhibition of human DHFR in presence of saturating levels of NADPH and DHFA

>  <published_relation>  (419) 
=

>  <standard_value>  (419) 
8640

>  <qudt_units>  (419) 
http://www.openphacts.org/units/Nanomolar

>  <target_tax_id>  (419) 
9606

>  <bao_label>  (419) 
single protein format

>  <published_units>  (419) 
uM

>  <pchembl_value>  (419) 
5.06

>  <published_type>  (419) 
IC50

>  <activity_comment>  (419) 
None

$$$$

     RDKit          

 24 27  0  0  0  0  0  0  0  0999 V2000
    0.0000    0.0000    0.0000 N   0  0  0  0  0  0  0  0  0  0  0  0
    0.0000    0.0000    0.0000 C   0  0  0  0  0  0  0  0  0  0  0  0
    0.0000    0.0000    0.0000 N   0  0  0  0  0  0  0  0  0  0  0  0
    0.0000    0.0000    0.0000 N   0  0  0  0  0  0  0  0  0  0  0  0
    0.0000    0.0000    0.0000 C   0  0  0  0  0  0  0  0  0  0  0  0
    0.0000    0.0000    0.0000 O   0  0  0  0  0  0  0  0  0  0  0  0
    0.0000    0.0000    0.0000 C   0  0  0  0  0  0  0  0  0  0  0  0
    0.0000    0.0000    0.0000 C   0  0  0  0  0  0  0  0  0  0  0  0
    0.0000    0.0000    0.0000 C   0  0  0  0  0  0  0  0  0  0  0  0
    0.0000    0.0000    0.0000 C   0  0  0  0  0  0  0  0  0  0  0  0
    0.0000    0.0000    0.0000 N   0  0  0  0  0  0  0  0  0  0  0  0
    0.0000    0.0000    0.0000 C   0  0  0  0  0  0  0  0  0  0  0  0
    0.0000    0.0000    0.0000 C   0  0  0  0  0  0  0  0  0  0  0  0
    0.0000    0.0000    0.0000 C   0  0  0  0  0  0  0  0  0  0  0  0
    0.0000    0.0000    0.0000 C   0  0  0  0  0  0  0  0  0  0  0  0
    0.0000    0.0000    0.0000 C   0  0  0  0  0  0  0  0  0  0  0  0
    0.0000    0.0000    0.0000 C   0  0  0  0  0  0  0  0  0  0  0  0
    0.0000    0.0000    0.0000 C   0  0  0  0  0  0  0  0  0  0  0  0
    0.0000    0.0000    0.0000 C   0  0  0  0  0  0  0  0  0  0  0  0
    0.0000    0.0000    0.0000 C   0  0  0  0  0  0  0  0  0  0  0  0
    0.0000    0.0000    0.0000 O   0  0  0  0  0  0  0  0  0  0  0  0
    0.0000    0.0000    0.0000 C   0  0  0  0  0  0  0  0  0  0  0  0
    0.0000    0.0000    0.0000 C   0  0  0  0  0  0  0  0  0  0  0  0
    0.0000    0.0000    0.0000 C   0  0  0  0  0  0  0  0  0  0  0  0
  1  2  1  0
  2  3  2  0
  4  2  1  0
  5  4  2  0
  6  5  1  0
  7  5  1  0
  8  6  1  0
  9  7  2  0
  7 10  1  0
 10  8  2  0
  3  9  1  0
  9 11  1  0
 12 10  1  0
 13 12  2  3
 14 13  1  0
 13 15  1  0
 16 14  2  0
 14 17  1  0
 15 18  1  0
 19 15  1  0
 20 16  1  0
 21 17  1  0
 17 22  2  0
 18 19  1  0
 23 20  2  0
 24 21  1  0
 22 23  1  0
M  END
>  <pIC50>  (420) 
4.99

>  <ChEMBL_ID>  (420) 
CHEMBL594320

>  <document_journal>  (420) 
Bioorg. Med. Chem.

>  <bao_endpoint>  (420) 
BAO_0000190

>  <potential_duplicate>  (420) 
False

>  <uo_units>  (420) 
UO_0000065

>  <canonical_smiles>  (420) 
COc1ccccc1C(=CC2=COC3=NC(=N)NC(=C23)N)C4CC4

>  <parent_molecule_chembl_id>  (420) 
CHEMBL594320

>  <assay_type>  (420) 
B

>  <src_id>  (420) 
1

>  <ligand_efficiency>  (420) 
{u'le': u'0.28', u'bei': u'15.48', u'sei': u'5.38', u'lle': u'2.9'}

>  <standard_flag>  (420) 
True

>  <molecule_chembl_id>  (420) 
CHEMBL594320

>  <target_organism>  (420) 
Homo sapiens

>  <standard_units>  (420) 
nM

>  <record_id>  (420) 
876578

>  <document_chembl_id>  (420) 
CHEMBL1152608

>  <bao_format>  (420) 
BAO_0000357

>  <data_validity_description>  (420) 
None

>  <activity_id>  (420) 
3056034

>  <standard_type>  (420) 
IC50

>  <target_chembl_id>  (420) 
CHEMBL202

>  <data_validity_comment>  (420) 
None

>  <published_value>  (420) 
10.2

>  <document_year>  (420) 
2009

>  <target_pref_name>  (420) 
Dihydrofolate reductase

>  <assay_chembl_id>  (420) 
CHEMBL1038903

>  <standard_relation>  (420) 
=

>  <assay_description>  (420) 
Inhibition of human DHFR in presence of saturating levels of NADPH and DHFA

>  <published_relation>  (420) 
=

>  <standard_value>  (420) 
10200

>  <qudt_units>  (420) 
http://www.openphacts.org/units/Nanomolar

>  <target_tax_id>  (420) 
9606

>  <bao_label>  (420) 
single protein format

>  <published_units>  (420) 
uM

>  <pchembl_value>  (420) 
4.99

>  <published_type>  (420) 
IC50

>  <activity_comment>  (420) 
None

$$$$

     RDKit          

 24 26  0  0  0  0  0  0  0  0999 V2000
    0.0000    0.0000    0.0000 N   0  0  0  0  0  0  0  0  0  0  0  0
    0.0000    0.0000    0.0000 C   0  0  0  0  0  0  0  0  0  0  0  0
    0.0000    0.0000    0.0000 N   0  0  0  0  0  0  0  0  0  0  0  0
    0.0000    0.0000    0.0000 N   0  0  0  0  0  0  0  0  0  0  0  0
    0.0000    0.0000    0.0000 C   0  0  0  0  0  0  0  0  0  0  0  0
    0.0000    0.0000    0.0000 O   0  0  0  0  0  0  0  0  0  0  0  0
    0.0000    0.0000    0.0000 C   0  0  0  0  0  0  0  0  0  0  0  0
    0.0000    0.0000    0.0000 C   0  0  0  0  0  0  0  0  0  0  0  0
    0.0000    0.0000    0.0000 C   0  0  0  0  0  0  0  0  0  0  0  0
    0.0000    0.0000    0.0000 C   0  0  0  0  0  0  0  0  0  0  0  0
    0.0000    0.0000    0.0000 N   0  0  0  0  0  0  0  0  0  0  0  0
    0.0000    0.0000    0.0000 C   0  0  0  0  0  0  0  0  0  0  0  0
    0.0000    0.0000    0.0000 C   0  0  0  0  0  0  0  0  0  0  0  0
    0.0000    0.0000    0.0000 C   0  0  0  0  0  0  0  0  0  0  0  0
    0.0000    0.0000    0.0000 C   0  0  0  0  0  0  0  0  0  0  0  0
    0.0000    0.0000    0.0000 C   0  0  0  0  0  0  0  0  0  0  0  0
    0.0000    0.0000    0.0000 C   0  0  0  0  0  0  0  0  0  0  0  0
    0.0000    0.0000    0.0000 C   0  0  0  0  0  0  0  0  0  0  0  0
    0.0000    0.0000    0.0000 C   0  0  0  0  0  0  0  0  0  0  0  0
    0.0000    0.0000    0.0000 C   0  0  0  0  0  0  0  0  0  0  0  0
    0.0000    0.0000    0.0000 C   0  0  0  0  0  0  0  0  0  0  0  0
    0.0000    0.0000    0.0000 O   0  0  0  0  0  0  0  0  0  0  0  0
    0.0000    0.0000    0.0000 C   0  0  0  0  0  0  0  0  0  0  0  0
    0.0000    0.0000    0.0000 C   0  0  0  0  0  0  0  0  0  0  0  0
  1  2  1  0
  2  3  2  0
  4  2  1  0
  5  4  2  0
  6  5  1  0
  7  5  1  0
  8  6  1  0
  9  7  2  0
  7 10  1  0
 10  8  2  0
  3  9  1  0
  9 11  1  0
 12 10  1  0
 13 12  2  3
 14 13  1  0
 13 15  1  0
 16 14  1  0
 15 17  2  0
 18 15  1  0
 19 16  1  0
 17 20  1  0
 21 18  2  0
 18 22  1  0
 20 23  2  0
 23 21  1  0
 22 24  1  0
M  END
>  <pIC50>  (421) 
4.91

>  <ChEMBL_ID>  (421) 
CHEMBL595497

>  <document_journal>  (421) 
Bioorg. Med. Chem.

>  <bao_endpoint>  (421) 
BAO_0000190

>  <potential_duplicate>  (421) 
False

>  <uo_units>  (421) 
UO_0000065

>  <canonical_smiles>  (421) 
CCCC(=CC1=COC2=NC(=N)NC(=C12)N)c3ccccc3OC

>  <parent_molecule_chembl_id>  (421) 
CHEMBL595497

>  <assay_type>  (421) 
B

>  <src_id>  (421) 
1

>  <ligand_efficiency>  (421) 
{u'le': u'0.28', u'bei': u'15.15', u'sei': u'5.3', u'lle': u'2.24'}

>  <standard_flag>  (421) 
True

>  <molecule_chembl_id>  (421) 
CHEMBL595497

>  <target_organism>  (421) 
Homo sapiens

>  <standard_units>  (421) 
nM

>  <record_id>  (421) 
876526

>  <document_chembl_id>  (421) 
CHEMBL1152608

>  <bao_format>  (421) 
BAO_0000357

>  <data_validity_description>  (421) 
None

>  <activity_id>  (421) 
3056040

>  <standard_type>  (421) 
IC50

>  <target_chembl_id>  (421) 
CHEMBL202

>  <data_validity_comment>  (421) 
None

>  <published_value>  (421) 
12.2

>  <document_year>  (421) 
2009

>  <target_pref_name>  (421) 
Dihydrofolate reductase

>  <assay_chembl_id>  (421) 
CHEMBL1038903

>  <standard_relation>  (421) 
=

>  <assay_description>  (421) 
Inhibition of human DHFR in presence of saturating levels of NADPH and DHFA

>  <published_relation>  (421) 
=

>  <standard_value>  (421) 
12200

>  <qudt_units>  (421) 
http://www.openphacts.org/units/Nanomolar

>  <target_tax_id>  (421) 
9606

>  <bao_label>  (421) 
single protein format

>  <published_units>  (421) 
uM

>  <pchembl_value>  (421) 
4.91

>  <published_type>  (421) 
IC50

>  <activity_comment>  (421) 
None

$$$$

     RDKit          

 22 24  0  0  0  0  0  0  0  0999 V2000
    0.0000    0.0000    0.0000 C   0  0  0  0  0  0  0  0  0  0  0  0
    0.0000    0.0000    0.0000 O   0  0  0  0  0  0  0  0  0  0  0  0
    0.0000    0.0000    0.0000 C   0  0  0  0  0  0  0  0  0  0  0  0
    0.0000    0.0000    0.0000 C   0  0  0  0  0  0  0  0  0  0  0  0
    0.0000    0.0000    0.0000 C   0  0  0  0  0  0  0  0  0  0  0  0
    0.0000    0.0000    0.0000 C   0  0  0  0  0  0  0  0  0  0  0  0
    0.0000    0.0000    0.0000 C   0  0  0  0  0  0  0  0  0  0  0  0
    0.0000    0.0000    0.0000 C   0  0  0  0  0  0  0  0  0  0  0  0
    0.0000    0.0000    0.0000 C   0  0  0  0  0  0  0  0  0  0  0  0
    0.0000    0.0000    0.0000 C   0  0  0  0  0  0  0  0  0  0  0  0
    0.0000    0.0000    0.0000 C   0  0  0  0  0  0  0  0  0  0  0  0
    0.0000    0.0000    0.0000 C   0  0  0  0  0  0  0  0  0  0  0  0
    0.0000    0.0000    0.0000 O   0  0  0  0  0  0  0  0  0  0  0  0
    0.0000    0.0000    0.0000 C   0  0  0  0  0  0  0  0  0  0  0  0
    0.0000    0.0000    0.0000 N   0  0  0  0  0  0  0  0  0  0  0  0
    0.0000    0.0000    0.0000 C   0  0  0  0  0  0  0  0  0  0  0  0
    0.0000    0.0000    0.0000 N   0  0  0  0  0  0  0  0  0  0  0  0
    0.0000    0.0000    0.0000 N   0  0  0  0  0  0  0  0  0  0  0  0
    0.0000    0.0000    0.0000 C   0  0  0  0  0  0  0  0  0  0  0  0
    0.0000    0.0000    0.0000 N   0  0  0  0  0  0  0  0  0  0  0  0
    0.0000    0.0000    0.0000 C   0  0  0  0  0  0  0  0  0  0  0  0
    0.0000    0.0000    0.0000 C   0  0  0  0  0  0  0  0  0  0  0  0
  1  2  1  0
  2  3  1  0
  3  4  2  0
  4  5  1  0
  5  6  2  0
  6  7  1  0
  7  8  2  0
  8  9  1  0
  9 10  2  0
 10 11  1  0
 11 12  2  0
 12 13  1  0
 13 14  1  0
 14 15  2  0
 15 16  1  0
 16 17  1  0
 16 18  2  0
 18 19  1  0
 19 20  1  0
 19 21  2  0
  9 22  1  0
  8  3  1  0
 21 11  1  0
 21 14  1  0
M  END
>  <pIC50>  (422) 
4.79

>  <ChEMBL_ID>  (422) 
CHEMBL610181

>  <document_journal>  (422) 
Bioorg. Med. Chem.

>  <bao_endpoint>  (422) 
BAO_0000190

>  <potential_duplicate>  (422) 
False

>  <uo_units>  (422) 
UO_0000065

>  <canonical_smiles>  (422) 
COc1ccccc1\C(=C\c2coc3nc(N)nc(N)c23)\C

>  <parent_molecule_chembl_id>  (422) 
CHEMBL610181

>  <assay_type>  (422) 
B

>  <src_id>  (422) 
1

>  <ligand_efficiency>  (422) 
{u'le': u'0.3', u'bei': u'16.15', u'sei': u'4.78', u'lle': u'2.25'}

>  <standard_flag>  (422) 
True

>  <molecule_chembl_id>  (422) 
CHEMBL610181

>  <target_organism>  (422) 
Homo sapiens

>  <standard_units>  (422) 
nM

>  <record_id>  (422) 
876502

>  <document_chembl_id>  (422) 
CHEMBL1152608

>  <bao_format>  (422) 
BAO_0000357

>  <data_validity_description>  (422) 
None

>  <activity_id>  (422) 
3056047

>  <standard_type>  (422) 
IC50

>  <target_chembl_id>  (422) 
CHEMBL202

>  <data_validity_comment>  (422) 
None

>  <published_value>  (422) 
16.4

>  <document_year>  (422) 
2009

>  <target_pref_name>  (422) 
Dihydrofolate reductase

>  <assay_chembl_id>  (422) 
CHEMBL1038903

>  <standard_relation>  (422) 
=

>  <assay_description>  (422) 
Inhibition of human DHFR in presence of saturating levels of NADPH and DHFA

>  <published_relation>  (422) 
=

>  <standard_value>  (422) 
16400

>  <qudt_units>  (422) 
http://www.openphacts.org/units/Nanomolar

>  <target_tax_id>  (422) 
9606

>  <bao_label>  (422) 
single protein format

>  <published_units>  (422) 
uM

>  <pchembl_value>  (422) 
4.79

>  <published_type>  (422) 
IC50

>  <activity_comment>  (422) 
None

$$$$

     RDKit          

 24 26  0  0  0  0  0  0  0  0999 V2000
    0.0000    0.0000    0.0000 C   0  0  0  0  0  0  0  0  0  0  0  0
    0.0000    0.0000    0.0000 C   0  0  0  0  0  0  0  0  0  0  0  0
    0.0000    0.0000    0.0000 C   0  0  0  0  0  0  0  0  0  0  0  0
    0.0000    0.0000    0.0000 C   0  0  0  0  0  0  0  0  0  0  0  0
    0.0000    0.0000    0.0000 C   0  0  0  0  0  0  0  0  0  0  0  0
    0.0000    0.0000    0.0000 C   0  0  0  0  0  0  0  0  0  0  0  0
    0.0000    0.0000    0.0000 C   0  0  0  0  0  0  0  0  0  0  0  0
    0.0000    0.0000    0.0000 O   0  0  0  0  0  0  0  0  0  0  0  0
    0.0000    0.0000    0.0000 C   0  0  0  0  0  0  0  0  0  0  0  0
    0.0000    0.0000    0.0000 N   0  0  0  0  0  0  0  0  0  0  0  0
    0.0000    0.0000    0.0000 C   0  0  0  0  0  0  0  0  0  0  0  0
    0.0000    0.0000    0.0000 N   0  0  0  0  0  0  0  0  0  0  0  0
    0.0000    0.0000    0.0000 N   0  0  0  0  0  0  0  0  0  0  0  0
    0.0000    0.0000    0.0000 C   0  0  0  0  0  0  0  0  0  0  0  0
    0.0000    0.0000    0.0000 N   0  0  0  0  0  0  0  0  0  0  0  0
    0.0000    0.0000    0.0000 C   0  0  0  0  0  0  0  0  0  0  0  0
    0.0000    0.0000    0.0000 C   0  0  0  0  0  0  0  0  0  0  0  0
    0.0000    0.0000    0.0000 C   0  0  0  0  0  0  0  0  0  0  0  0
    0.0000    0.0000    0.0000 C   0  0  0  0  0  0  0  0  0  0  0  0
    0.0000    0.0000    0.0000 C   0  0  0  0  0  0  0  0  0  0  0  0
    0.0000    0.0000    0.0000 C   0  0  0  0  0  0  0  0  0  0  0  0
    0.0000    0.0000    0.0000 C   0  0  0  0  0  0  0  0  0  0  0  0
    0.0000    0.0000    0.0000 O   0  0  0  0  0  0  0  0  0  0  0  0
    0.0000    0.0000    0.0000 C   0  0  0  0  0  0  0  0  0  0  0  0
  1  2  1  0
  2  3  1  0
  3  4  1  0
  4  5  1  0
  5  6  1  0
  6  7  2  0
  7  8  1  0
  8  9  1  0
  9 10  2  0
 10 11  1  0
 11 12  1  0
 11 13  2  0
 13 14  1  0
 14 15  1  0
 14 16  2  0
  4 17  1  0
 17 18  2  0
 18 19  1  0
 19 20  2  0
 20 21  1  0
 21 22  2  0
 22 23  1  0
 23 24  1  0
 16  6  1  0
 16  9  1  0
 22 17  1  0
M  END
>  <pIC50>  (423) 
4.59

>  <ChEMBL_ID>  (423) 
CHEMBL605413

>  <document_journal>  (423) 
Bioorg. Med. Chem.

>  <bao_endpoint>  (423) 
BAO_0000190

>  <potential_duplicate>  (423) 
False

>  <uo_units>  (423) 
UO_0000065

>  <canonical_smiles>  (423) 
CCCC(Cc1coc2nc(N)nc(N)c12)c3ccccc3OC

>  <parent_molecule_chembl_id>  (423) 
CHEMBL605413

>  <assay_type>  (423) 
B

>  <src_id>  (423) 
1

>  <ligand_efficiency>  (423) 
{u'le': u'0.26', u'bei': u'14.05', u'sei': u'4.58', u'lle': u'0.89'}

>  <standard_flag>  (423) 
True

>  <molecule_chembl_id>  (423) 
CHEMBL605413

>  <target_organism>  (423) 
Homo sapiens

>  <standard_units>  (423) 
nM

>  <record_id>  (423) 
876598

>  <document_chembl_id>  (423) 
CHEMBL1152608

>  <bao_format>  (423) 
BAO_0000357

>  <data_validity_description>  (423) 
None

>  <activity_id>  (423) 
3056054

>  <standard_type>  (423) 
IC50

>  <target_chembl_id>  (423) 
CHEMBL202

>  <data_validity_comment>  (423) 
None

>  <published_value>  (423) 
25.9

>  <document_year>  (423) 
2009

>  <target_pref_name>  (423) 
Dihydrofolate reductase

>  <assay_chembl_id>  (423) 
CHEMBL1038903

>  <standard_relation>  (423) 
=

>  <assay_description>  (423) 
Inhibition of human DHFR in presence of saturating levels of NADPH and DHFA

>  <published_relation>  (423) 
=

>  <standard_value>  (423) 
25900

>  <qudt_units>  (423) 
http://www.openphacts.org/units/Nanomolar

>  <target_tax_id>  (423) 
9606

>  <bao_label>  (423) 
single protein format

>  <published_units>  (423) 
uM

>  <pchembl_value>  (423) 
4.59

>  <published_type>  (423) 
IC50

>  <activity_comment>  (423) 
None

$$$$

     RDKit          

 25 27  0  0  0  0  0  0  0  0999 V2000
    0.0000    0.0000    0.0000 N   0  0  0  0  0  0  0  0  0  0  0  0
    0.0000    0.0000    0.0000 C   0  0  0  0  0  0  0  0  0  0  0  0
    0.0000    0.0000    0.0000 N   0  0  0  0  0  0  0  0  0  0  0  0
    0.0000    0.0000    0.0000 N   0  0  0  0  0  0  0  0  0  0  0  0
    0.0000    0.0000    0.0000 C   0  0  0  0  0  0  0  0  0  0  0  0
    0.0000    0.0000    0.0000 O   0  0  0  0  0  0  0  0  0  0  0  0
    0.0000    0.0000    0.0000 C   0  0  0  0  0  0  0  0  0  0  0  0
    0.0000    0.0000    0.0000 C   0  0  0  0  0  0  0  0  0  0  0  0
    0.0000    0.0000    0.0000 C   0  0  0  0  0  0  0  0  0  0  0  0
    0.0000    0.0000    0.0000 C   0  0  0  0  0  0  0  0  0  0  0  0
    0.0000    0.0000    0.0000 N   0  0  0  0  0  0  0  0  0  0  0  0
    0.0000    0.0000    0.0000 C   0  0  0  0  0  0  0  0  0  0  0  0
    0.0000    0.0000    0.0000 C   0  0  0  0  0  0  0  0  0  0  0  0
    0.0000    0.0000    0.0000 C   0  0  0  0  0  0  0  0  0  0  0  0
    0.0000    0.0000    0.0000 C   0  0  0  0  0  0  0  0  0  0  0  0
    0.0000    0.0000    0.0000 C   0  0  0  0  0  0  0  0  0  0  0  0
    0.0000    0.0000    0.0000 C   0  0  0  0  0  0  0  0  0  0  0  0
    0.0000    0.0000    0.0000 C   0  0  0  0  0  0  0  0  0  0  0  0
    0.0000    0.0000    0.0000 C   0  0  0  0  0  0  0  0  0  0  0  0
    0.0000    0.0000    0.0000 C   0  0  0  0  0  0  0  0  0  0  0  0
    0.0000    0.0000    0.0000 C   0  0  0  0  0  0  0  0  0  0  0  0
    0.0000    0.0000    0.0000 O   0  0  0  0  0  0  0  0  0  0  0  0
    0.0000    0.0000    0.0000 C   0  0  0  0  0  0  0  0  0  0  0  0
    0.0000    0.0000    0.0000 C   0  0  0  0  0  0  0  0  0  0  0  0
    0.0000    0.0000    0.0000 C   0  0  0  0  0  0  0  0  0  0  0  0
  1  2  1  0
  2  3  2  0
  4  2  1  0
  5  4  2  0
  6  5  1  0
  7  5  1  0
  8  6  1  0
  9  7  2  0
  7 10  1  0
 10  8  2  0
  3  9  1  0
  9 11  1  0
 12 10  1  0
 13 12  2  3
 14 13  1  0
 13 15  1  0
 16 14  1  0
 15 17  2  0
 18 15  1  0
 19 16  1  0
 17 20  1  0
 21 18  2  0
 18 22  1  0
 23 19  1  0
 20 24  2  0
 24 21  1  0
 22 25  1  0
M  END
>  <pIC50>  (424) 
4.48

>  <ChEMBL_ID>  (424) 
CHEMBL604879

>  <document_journal>  (424) 
Bioorg. Med. Chem.

>  <bao_endpoint>  (424) 
BAO_0000190

>  <potential_duplicate>  (424) 
False

>  <uo_units>  (424) 
UO_0000065

>  <canonical_smiles>  (424) 
CCCCC(=CC1=COC2=NC(=N)NC(=C12)N)c3ccccc3OC

>  <parent_molecule_chembl_id>  (424) 
CHEMBL604879

>  <assay_type>  (424) 
B

>  <src_id>  (424) 
1

>  <ligand_efficiency>  (424) 
{u'le': u'0.24', u'bei': u'13.23', u'sei': u'4.83', u'lle': u'1.35'}

>  <standard_flag>  (424) 
True

>  <molecule_chembl_id>  (424) 
CHEMBL604879

>  <target_organism>  (424) 
Homo sapiens

>  <standard_units>  (424) 
nM

>  <record_id>  (424) 
876586

>  <document_chembl_id>  (424) 
CHEMBL1152608

>  <bao_format>  (424) 
BAO_0000357

>  <data_validity_description>  (424) 
None

>  <activity_id>  (424) 
3056064

>  <standard_type>  (424) 
IC50

>  <target_chembl_id>  (424) 
CHEMBL202

>  <data_validity_comment>  (424) 
None

>  <published_value>  (424) 
33.3

>  <document_year>  (424) 
2009

>  <target_pref_name>  (424) 
Dihydrofolate reductase

>  <assay_chembl_id>  (424) 
CHEMBL1038903

>  <standard_relation>  (424) 
=

>  <assay_description>  (424) 
Inhibition of human DHFR in presence of saturating levels of NADPH and DHFA

>  <published_relation>  (424) 
=

>  <standard_value>  (424) 
33300

>  <qudt_units>  (424) 
http://www.openphacts.org/units/Nanomolar

>  <target_tax_id>  (424) 
9606

>  <bao_label>  (424) 
single protein format

>  <published_units>  (424) 
uM

>  <pchembl_value>  (424) 
4.48

>  <published_type>  (424) 
IC50

>  <activity_comment>  (424) 
None

$$$$

     RDKit          

 25 27  0  0  0  0  0  0  0  0999 V2000
    0.0000    0.0000    0.0000 C   0  0  0  0  0  0  0  0  0  0  0  0
    0.0000    0.0000    0.0000 C   0  0  0  0  0  0  0  0  0  0  0  0
    0.0000    0.0000    0.0000 C   0  0  0  0  0  0  0  0  0  0  0  0
    0.0000    0.0000    0.0000 C   0  0  0  0  0  0  0  0  0  0  0  0
    0.0000    0.0000    0.0000 C   0  0  0  0  0  0  0  0  0  0  0  0
    0.0000    0.0000    0.0000 C   0  0  0  0  0  0  0  0  0  0  0  0
    0.0000    0.0000    0.0000 C   0  0  0  0  0  0  0  0  0  0  0  0
    0.0000    0.0000    0.0000 C   0  0  0  0  0  0  0  0  0  0  0  0
    0.0000    0.0000    0.0000 O   0  0  0  0  0  0  0  0  0  0  0  0
    0.0000    0.0000    0.0000 C   0  0  0  0  0  0  0  0  0  0  0  0
    0.0000    0.0000    0.0000 N   0  0  0  0  0  0  0  0  0  0  0  0
    0.0000    0.0000    0.0000 C   0  0  0  0  0  0  0  0  0  0  0  0
    0.0000    0.0000    0.0000 N   0  0  0  0  0  0  0  0  0  0  0  0
    0.0000    0.0000    0.0000 N   0  0  0  0  0  0  0  0  0  0  0  0
    0.0000    0.0000    0.0000 C   0  0  0  0  0  0  0  0  0  0  0  0
    0.0000    0.0000    0.0000 N   0  0  0  0  0  0  0  0  0  0  0  0
    0.0000    0.0000    0.0000 C   0  0  0  0  0  0  0  0  0  0  0  0
    0.0000    0.0000    0.0000 C   0  0  0  0  0  0  0  0  0  0  0  0
    0.0000    0.0000    0.0000 C   0  0  0  0  0  0  0  0  0  0  0  0
    0.0000    0.0000    0.0000 C   0  0  0  0  0  0  0  0  0  0  0  0
    0.0000    0.0000    0.0000 C   0  0  0  0  0  0  0  0  0  0  0  0
    0.0000    0.0000    0.0000 C   0  0  0  0  0  0  0  0  0  0  0  0
    0.0000    0.0000    0.0000 C   0  0  0  0  0  0  0  0  0  0  0  0
    0.0000    0.0000    0.0000 O   0  0  0  0  0  0  0  0  0  0  0  0
    0.0000    0.0000    0.0000 C   0  0  0  0  0  0  0  0  0  0  0  0
  1  2  1  0
  2  3  1  0
  3  4  1  0
  3  5  1  0
  5  6  1  0
  6  7  1  0
  7  8  2  0
  8  9  1  0
  9 10  1  0
 10 11  2  0
 11 12  1  0
 12 13  1  0
 12 14  2  0
 14 15  1  0
 15 16  1  0
 15 17  2  0
  5 18  1  0
 18 19  2  0
 19 20  1  0
 20 21  2  0
 21 22  1  0
 22 23  2  0
 23 24  1  0
 24 25  1  0
 17  7  1  0
 17 10  1  0
 23 18  1  0
M  END
>  <pIC50>  (425) 
4.38

>  <ChEMBL_ID>  (425) 
CHEMBL594339

>  <document_journal>  (425) 
Bioorg. Med. Chem.

>  <bao_endpoint>  (425) 
BAO_0000190

>  <potential_duplicate>  (425) 
False

>  <uo_units>  (425) 
UO_0000065

>  <canonical_smiles>  (425) 
CCC(C)C(Cc1coc2nc(N)nc(N)c12)c3ccccc3OC

>  <parent_molecule_chembl_id>  (425) 
CHEMBL594339

>  <assay_type>  (425) 
B

>  <src_id>  (425) 
1

>  <ligand_efficiency>  (425) 
{u'le': u'0.24', u'bei': u'12.85', u'sei': u'4.37', u'lle': u'0.43'}

>  <standard_flag>  (425) 
True

>  <molecule_chembl_id>  (425) 
CHEMBL594339

>  <target_organism>  (425) 
Homo sapiens

>  <standard_units>  (425) 
nM

>  <record_id>  (425) 
876528

>  <document_chembl_id>  (425) 
CHEMBL1152608

>  <bao_format>  (425) 
BAO_0000357

>  <data_validity_description>  (425) 
None

>  <activity_id>  (425) 
3056071

>  <standard_type>  (425) 
IC50

>  <target_chembl_id>  (425) 
CHEMBL202

>  <data_validity_comment>  (425) 
None

>  <published_value>  (425) 
42.1

>  <document_year>  (425) 
2009

>  <target_pref_name>  (425) 
Dihydrofolate reductase

>  <assay_chembl_id>  (425) 
CHEMBL1038903

>  <standard_relation>  (425) 
=

>  <assay_description>  (425) 
Inhibition of human DHFR in presence of saturating levels of NADPH and DHFA

>  <published_relation>  (425) 
=

>  <standard_value>  (425) 
42100

>  <qudt_units>  (425) 
http://www.openphacts.org/units/Nanomolar

>  <target_tax_id>  (425) 
9606

>  <bao_label>  (425) 
single protein format

>  <published_units>  (425) 
uM

>  <pchembl_value>  (425) 
4.38

>  <published_type>  (425) 
IC50

>  <activity_comment>  (425) 
None

$$$$

     RDKit          

 25 27  0  0  0  0  0  0  0  0999 V2000
    0.0000    0.0000    0.0000 C   0  0  0  0  0  0  0  0  0  0  0  0
    0.0000    0.0000    0.0000 O   0  0  0  0  0  0  0  0  0  0  0  0
    0.0000    0.0000    0.0000 C   0  0  0  0  0  0  0  0  0  0  0  0
    0.0000    0.0000    0.0000 C   0  0  0  0  0  0  0  0  0  0  0  0
    0.0000    0.0000    0.0000 C   0  0  0  0  0  0  0  0  0  0  0  0
    0.0000    0.0000    0.0000 C   0  0  0  0  0  0  0  0  0  0  0  0
    0.0000    0.0000    0.0000 C   0  0  0  0  0  0  0  0  0  0  0  0
    0.0000    0.0000    0.0000 C   0  0  0  0  0  0  0  0  0  0  0  0
    0.0000    0.0000    0.0000 C   0  0  0  0  0  0  0  0  0  0  0  0
    0.0000    0.0000    0.0000 C   0  0  0  0  0  0  0  0  0  0  0  0
    0.0000    0.0000    0.0000 C   0  0  0  0  0  0  0  0  0  0  0  0
    0.0000    0.0000    0.0000 C   0  0  0  0  0  0  0  0  0  0  0  0
    0.0000    0.0000    0.0000 C   0  0  0  0  0  0  0  0  0  0  0  0
    0.0000    0.0000    0.0000 C   0  0  0  0  0  0  0  0  0  0  0  0
    0.0000    0.0000    0.0000 C   0  0  0  0  0  0  0  0  0  0  0  0
    0.0000    0.0000    0.0000 C   0  0  0  0  0  0  0  0  0  0  0  0
    0.0000    0.0000    0.0000 O   0  0  0  0  0  0  0  0  0  0  0  0
    0.0000    0.0000    0.0000 C   0  0  0  0  0  0  0  0  0  0  0  0
    0.0000    0.0000    0.0000 N   0  0  0  0  0  0  0  0  0  0  0  0
    0.0000    0.0000    0.0000 C   0  0  0  0  0  0  0  0  0  0  0  0
    0.0000    0.0000    0.0000 N   0  0  0  0  0  0  0  0  0  0  0  0
    0.0000    0.0000    0.0000 N   0  0  0  0  0  0  0  0  0  0  0  0
    0.0000    0.0000    0.0000 C   0  0  0  0  0  0  0  0  0  0  0  0
    0.0000    0.0000    0.0000 N   0  0  0  0  0  0  0  0  0  0  0  0
    0.0000    0.0000    0.0000 C   0  0  0  0  0  0  0  0  0  0  0  0
  1  2  1  0
  2  3  1  0
  3  4  2  0
  4  5  1  0
  5  6  2  0
  6  7  1  0
  7  8  2  0
  8  9  1  0
  9 10  1  0
 10 11  1  0
 11 12  1  0
 11 13  1  0
  9 14  1  0
 14 15  1  0
 15 16  2  0
 16 17  1  0
 17 18  1  0
 18 19  2  0
 19 20  1  0
 20 21  1  0
 20 22  2  0
 22 23  1  0
 23 24  1  0
 23 25  2  0
  8  3  1  0
 25 15  1  0
 25 18  1  0
M  END
>  <pIC50>  (426) 
4.2

>  <ChEMBL_ID>  (426) 
CHEMBL606362

>  <document_journal>  (426) 
Bioorg. Med. Chem.

>  <bao_endpoint>  (426) 
BAO_0000190

>  <potential_duplicate>  (426) 
False

>  <uo_units>  (426) 
UO_0000065

>  <canonical_smiles>  (426) 
COc1ccccc1C(CC(C)C)Cc2coc3nc(N)nc(N)c23

>  <parent_molecule_chembl_id>  (426) 
CHEMBL606362

>  <assay_type>  (426) 
B

>  <src_id>  (426) 
1

>  <ligand_efficiency>  (426) 
{u'le': u'0.23', u'bei': u'12.35', u'sei': u'4.19', u'lle': u'0.25'}

>  <standard_flag>  (426) 
True

>  <molecule_chembl_id>  (426) 
CHEMBL606362

>  <target_organism>  (426) 
Homo sapiens

>  <standard_units>  (426) 
nM

>  <record_id>  (426) 
876527

>  <document_chembl_id>  (426) 
CHEMBL1152608

>  <bao_format>  (426) 
BAO_0000357

>  <data_validity_description>  (426) 
None

>  <activity_id>  (426) 
3056081

>  <standard_type>  (426) 
IC50

>  <target_chembl_id>  (426) 
CHEMBL202

>  <data_validity_comment>  (426) 
None

>  <published_value>  (426) 
62.7

>  <document_year>  (426) 
2009

>  <target_pref_name>  (426) 
Dihydrofolate reductase

>  <assay_chembl_id>  (426) 
CHEMBL1038903

>  <standard_relation>  (426) 
=

>  <assay_description>  (426) 
Inhibition of human DHFR in presence of saturating levels of NADPH and DHFA

>  <published_relation>  (426) 
=

>  <standard_value>  (426) 
62700

>  <qudt_units>  (426) 
http://www.openphacts.org/units/Nanomolar

>  <target_tax_id>  (426) 
9606

>  <bao_label>  (426) 
single protein format

>  <published_units>  (426) 
uM

>  <pchembl_value>  (426) 
4.2

>  <published_type>  (426) 
IC50

>  <activity_comment>  (426) 
None

$$$$

     RDKit          

 25 27  0  0  0  0  0  0  0  0999 V2000
    0.0000    0.0000    0.0000 N   0  0  0  0  0  0  0  0  0  0  0  0
    0.0000    0.0000    0.0000 C   0  0  0  0  0  0  0  0  0  0  0  0
    0.0000    0.0000    0.0000 N   0  0  0  0  0  0  0  0  0  0  0  0
    0.0000    0.0000    0.0000 N   0  0  0  0  0  0  0  0  0  0  0  0
    0.0000    0.0000    0.0000 C   0  0  0  0  0  0  0  0  0  0  0  0
    0.0000    0.0000    0.0000 O   0  0  0  0  0  0  0  0  0  0  0  0
    0.0000    0.0000    0.0000 C   0  0  0  0  0  0  0  0  0  0  0  0
    0.0000    0.0000    0.0000 C   0  0  0  0  0  0  0  0  0  0  0  0
    0.0000    0.0000    0.0000 C   0  0  0  0  0  0  0  0  0  0  0  0
    0.0000    0.0000    0.0000 C   0  0  0  0  0  0  0  0  0  0  0  0
    0.0000    0.0000    0.0000 N   0  0  0  0  0  0  0  0  0  0  0  0
    0.0000    0.0000    0.0000 C   0  0  0  0  0  0  0  0  0  0  0  0
    0.0000    0.0000    0.0000 C   0  0  0  0  0  0  0  0  0  0  0  0
    0.0000    0.0000    0.0000 C   0  0  0  0  0  0  0  0  0  0  0  0
    0.0000    0.0000    0.0000 C   0  0  0  0  0  0  0  0  0  0  0  0
    0.0000    0.0000    0.0000 C   0  0  0  0  0  0  0  0  0  0  0  0
    0.0000    0.0000    0.0000 C   0  0  0  0  0  0  0  0  0  0  0  0
    0.0000    0.0000    0.0000 C   0  0  0  0  0  0  0  0  0  0  0  0
    0.0000    0.0000    0.0000 C   0  0  0  0  0  0  0  0  0  0  0  0
    0.0000    0.0000    0.0000 O   0  0  0  0  0  0  0  0  0  0  0  0
    0.0000    0.0000    0.0000 C   0  0  0  0  0  0  0  0  0  0  0  0
    0.0000    0.0000    0.0000 C   0  0  0  0  0  0  0  0  0  0  0  0
    0.0000    0.0000    0.0000 C   0  0  0  0  0  0  0  0  0  0  0  0
    0.0000    0.0000    0.0000 C   0  0  0  0  0  0  0  0  0  0  0  0
    0.0000    0.0000    0.0000 C   0  0  0  0  0  0  0  0  0  0  0  0
  1  2  1  0
  2  3  2  0
  4  2  1  0
  5  4  2  0
  6  5  1  0
  7  5  1  0
  8  6  1  0
  9  7  2  0
  7 10  1  0
 10  8  2  0
  3  9  1  0
  9 11  1  0
 12 10  1  0
 13 12  2  3
 14 13  1  0
 13 15  1  0
 16 14  2  0
 14 17  1  0
 15 18  1  0
 19 16  1  0
 20 17  1  0
 17 21  2  0
 18 22  1  0
 18 23  1  0
 24 19  2  0
 25 20  1  0
 21 24  1  0
M  END
>  <pIC50>  (427) 
4.06

>  <ChEMBL_ID>  (427) 
CHEMBL593154

>  <document_journal>  (427) 
Bioorg. Med. Chem.

>  <bao_endpoint>  (427) 
BAO_0000190

>  <potential_duplicate>  (427) 
False

>  <uo_units>  (427) 
UO_0000065

>  <canonical_smiles>  (427) 
COc1ccccc1C(=CC2=COC3=NC(=N)NC(=C23)N)CC(C)C

>  <parent_molecule_chembl_id>  (427) 
CHEMBL593154

>  <assay_type>  (427) 
B

>  <src_id>  (427) 
1

>  <ligand_efficiency>  (427) 
{u'le': u'0.22', u'bei': u'12.01', u'sei': u'4.38', u'lle': u'1.14'}

>  <standard_flag>  (427) 
True

>  <molecule_chembl_id>  (427) 
CHEMBL593154

>  <target_organism>  (427) 
Homo sapiens

>  <standard_units>  (427) 
nM

>  <record_id>  (427) 
876587

>  <document_chembl_id>  (427) 
CHEMBL1152608

>  <bao_format>  (427) 
BAO_0000357

>  <data_validity_description>  (427) 
None

>  <activity_id>  (427) 
3056083

>  <standard_type>  (427) 
IC50

>  <target_chembl_id>  (427) 
CHEMBL202

>  <data_validity_comment>  (427) 
None

>  <published_value>  (427) 
86.5

>  <document_year>  (427) 
2009

>  <target_pref_name>  (427) 
Dihydrofolate reductase

>  <assay_chembl_id>  (427) 
CHEMBL1038903

>  <standard_relation>  (427) 
=

>  <assay_description>  (427) 
Inhibition of human DHFR in presence of saturating levels of NADPH and DHFA

>  <published_relation>  (427) 
=

>  <standard_value>  (427) 
86500

>  <qudt_units>  (427) 
http://www.openphacts.org/units/Nanomolar

>  <target_tax_id>  (427) 
9606

>  <bao_label>  (427) 
single protein format

>  <published_units>  (427) 
uM

>  <pchembl_value>  (427) 
4.06

>  <published_type>  (427) 
IC50

>  <activity_comment>  (427) 
None

$$$$

     RDKit          

 25 27  0  0  0  0  0  0  0  0999 V2000
    0.0000    0.0000    0.0000 C   0  0  0  0  0  0  0  0  0  0  0  0
    0.0000    0.0000    0.0000 C   0  0  0  0  0  0  0  0  0  0  0  0
    0.0000    0.0000    0.0000 C   0  0  0  0  0  0  0  0  0  0  0  0
    0.0000    0.0000    0.0000 C   0  0  0  0  0  0  0  0  0  0  0  0
    0.0000    0.0000    0.0000 C   0  0  0  0  0  0  0  0  0  0  0  0
    0.0000    0.0000    0.0000 C   0  0  0  0  0  0  0  0  0  0  0  0
    0.0000    0.0000    0.0000 C   0  0  0  0  0  0  0  0  0  0  0  0
    0.0000    0.0000    0.0000 C   0  0  0  0  0  0  0  0  0  0  0  0
    0.0000    0.0000    0.0000 O   0  0  0  0  0  0  0  0  0  0  0  0
    0.0000    0.0000    0.0000 C   0  0  0  0  0  0  0  0  0  0  0  0
    0.0000    0.0000    0.0000 N   0  0  0  0  0  0  0  0  0  0  0  0
    0.0000    0.0000    0.0000 C   0  0  0  0  0  0  0  0  0  0  0  0
    0.0000    0.0000    0.0000 N   0  0  0  0  0  0  0  0  0  0  0  0
    0.0000    0.0000    0.0000 N   0  0  0  0  0  0  0  0  0  0  0  0
    0.0000    0.0000    0.0000 C   0  0  0  0  0  0  0  0  0  0  0  0
    0.0000    0.0000    0.0000 N   0  0  0  0  0  0  0  0  0  0  0  0
    0.0000    0.0000    0.0000 C   0  0  0  0  0  0  0  0  0  0  0  0
    0.0000    0.0000    0.0000 C   0  0  0  0  0  0  0  0  0  0  0  0
    0.0000    0.0000    0.0000 C   0  0  0  0  0  0  0  0  0  0  0  0
    0.0000    0.0000    0.0000 C   0  0  0  0  0  0  0  0  0  0  0  0
    0.0000    0.0000    0.0000 C   0  0  0  0  0  0  0  0  0  0  0  0
    0.0000    0.0000    0.0000 C   0  0  0  0  0  0  0  0  0  0  0  0
    0.0000    0.0000    0.0000 C   0  0  0  0  0  0  0  0  0  0  0  0
    0.0000    0.0000    0.0000 O   0  0  0  0  0  0  0  0  0  0  0  0
    0.0000    0.0000    0.0000 C   0  0  0  0  0  0  0  0  0  0  0  0
  1  2  1  0
  2  3  1  0
  3  4  1  0
  4  5  1  0
  5  6  1  0
  6  7  1  0
  7  8  2  0
  8  9  1  0
  9 10  1  0
 10 11  2  0
 11 12  1  0
 12 13  1  0
 12 14  2  0
 14 15  1  0
 15 16  1  0
 15 17  2  0
  5 18  1  0
 18 19  2  0
 19 20  1  0
 20 21  2  0
 21 22  1  0
 22 23  2  0
 23 24  1  0
 24 25  1  0
 17  7  1  0
 17 10  1  0
 23 18  1  0
M  END
>  <pIC50>  (428) 
4.03

>  <ChEMBL_ID>  (428) 
CHEMBL594790

>  <document_journal>  (428) 
Bioorg. Med. Chem.

>  <bao_endpoint>  (428) 
BAO_0000190

>  <potential_duplicate>  (428) 
False

>  <uo_units>  (428) 
UO_0000065

>  <canonical_smiles>  (428) 
CCCCC(Cc1coc2nc(N)nc(N)c12)c3ccccc3OC

>  <parent_molecule_chembl_id>  (428) 
CHEMBL594790

>  <assay_type>  (428) 
B

>  <src_id>  (428) 
1

>  <ligand_efficiency>  (428) 
{u'le': u'0.22', u'bei': u'11.83', u'sei': u'4.02', u'lle': u'-0.13'}

>  <standard_flag>  (428) 
True

>  <molecule_chembl_id>  (428) 
CHEMBL594790

>  <target_organism>  (428) 
Homo sapiens

>  <standard_units>  (428) 
nM

>  <record_id>  (428) 
876503

>  <document_chembl_id>  (428) 
CHEMBL1152608

>  <bao_format>  (428) 
BAO_0000357

>  <data_validity_description>  (428) 
None

>  <activity_id>  (428) 
3057169

>  <standard_type>  (428) 
IC50

>  <target_chembl_id>  (428) 
CHEMBL202

>  <data_validity_comment>  (428) 
None

>  <published_value>  (428) 
93.9

>  <document_year>  (428) 
2009

>  <target_pref_name>  (428) 
Dihydrofolate reductase

>  <assay_chembl_id>  (428) 
CHEMBL1038903

>  <standard_relation>  (428) 
=

>  <assay_description>  (428) 
Inhibition of human DHFR in presence of saturating levels of NADPH and DHFA

>  <published_relation>  (428) 
=

>  <standard_value>  (428) 
93900

>  <qudt_units>  (428) 
http://www.openphacts.org/units/Nanomolar

>  <target_tax_id>  (428) 
9606

>  <bao_label>  (428) 
single protein format

>  <published_units>  (428) 
uM

>  <pchembl_value>  (428) 
4.03

>  <published_type>  (428) 
IC50

>  <activity_comment>  (428) 
None

$$$$

     RDKit          

 31 33  0  0  0  0  0  0  0  0999 V2000
    0.0000    0.0000    0.0000 C   0  0  0  0  0  0  0  0  0  0  0  0
    0.0000    0.0000    0.0000 C   0  0  0  0  0  0  0  0  0  0  0  0
    0.0000    0.0000    0.0000 C   0  0  0  0  0  0  0  0  0  0  0  0
    0.0000    0.0000    0.0000 O   0  0  0  0  0  0  0  0  0  0  0  0
    0.0000    0.0000    0.0000 C   0  0  0  0  0  0  0  0  0  0  0  0
    0.0000    0.0000    0.0000 N   0  0  0  0  0  0  0  0  0  0  0  0
    0.0000    0.0000    0.0000 C   0  0  0  0  0  0  0  0  0  0  0  0
    0.0000    0.0000    0.0000 N   0  0  0  0  0  0  0  0  0  0  0  0
    0.0000    0.0000    0.0000 N   0  0  0  0  0  0  0  0  0  0  0  0
    0.0000    0.0000    0.0000 C   0  0  0  0  0  0  0  0  0  0  0  0
    0.0000    0.0000    0.0000 N   0  0  0  0  0  0  0  0  0  0  0  0
    0.0000    0.0000    0.0000 C   0  0  0  0  0  0  0  0  0  0  0  0
    0.0000    0.0000    0.0000 S   0  0  0  0  0  0  0  0  0  0  0  0
    0.0000    0.0000    0.0000 C   0  0  0  0  0  0  0  0  0  0  0  0
    0.0000    0.0000    0.0000 C   0  0  0  0  0  0  0  0  0  0  0  0
    0.0000    0.0000    0.0000 C   0  0  0  0  0  0  0  0  0  0  0  0
    0.0000    0.0000    0.0000 C   0  0  0  0  0  0  0  0  0  0  0  0
    0.0000    0.0000    0.0000 C   0  0  0  0  0  0  0  0  0  0  0  0
    0.0000    0.0000    0.0000 C   0  0  0  0  0  0  0  0  0  0  0  0
    0.0000    0.0000    0.0000 C   0  0  0  0  0  0  0  0  0  0  0  0
    0.0000    0.0000    0.0000 O   0  0  0  0  0  0  0  0  0  0  0  0
    0.0000    0.0000    0.0000 N   0  0  0  0  0  0  0  0  0  0  0  0
    0.0000    0.0000    0.0000 C   0  0  0  0  0  0  0  0  0  0  0  0
    0.0000    0.0000    0.0000 C   0  0  0  0  0  0  0  0  0  0  0  0
    0.0000    0.0000    0.0000 C   0  0  0  0  0  0  0  0  0  0  0  0
    0.0000    0.0000    0.0000 C   0  0  0  0  0  0  0  0  0  0  0  0
    0.0000    0.0000    0.0000 O   0  0  0  0  0  0  0  0  0  0  0  0
    0.0000    0.0000    0.0000 O   0  0  0  0  0  0  0  0  0  0  0  0
    0.0000    0.0000    0.0000 C   0  0  0  0  0  0  0  0  0  0  0  0
    0.0000    0.0000    0.0000 O   0  0  0  0  0  0  0  0  0  0  0  0
    0.0000    0.0000    0.0000 O   0  0  0  0  0  0  0  0  0  0  0  0
  1  2  1  0
  2  3  2  0
  3  4  1  0
  4  5  1  0
  5  6  2  0
  6  7  1  0
  7  8  1  0
  7  9  2  0
  9 10  1  0
 10 11  1  0
 10 12  2  0
  3 13  1  0
 13 14  1  0
 14 15  2  0
 15 16  1  0
 16 17  2  0
 17 18  1  0
 18 19  2  0
 17 20  1  0
 20 21  2  0
 20 22  1  0
 22 23  1  0
 23 24  1  0
 24 25  1  0
 25 26  1  0
 26 27  2  0
 26 28  1  0
 23 29  1  0
 29 30  2  0
 29 31  1  0
 12  2  1  0
 12  5  1  0
 19 14  1  0
M  END
>  <pIC50>  (429) 
5.4

>  <ChEMBL_ID>  (429) 
CHEMBL596672

>  <document_journal>  (429) 
Bioorg. Med. Chem.

>  <bao_endpoint>  (429) 
BAO_0000190

>  <potential_duplicate>  (429) 
False

>  <uo_units>  (429) 
UO_0000065

>  <canonical_smiles>  (429) 
Cc1c(oc2nc(N)nc(N)c12)Sc3ccc(cc3)C(=O)N[C@@H](CCC(=O)O)C(=O)O

>  <parent_molecule_chembl_id>  (429) 
CHEMBL596672

>  <assay_type>  (429) 
B

>  <src_id>  (429) 
1

>  <ligand_efficiency>  (429) 
{u'le': u'0.24', u'bei': u'12.12', u'sei': u'2.45', u'lle': u'3.67'}

>  <standard_flag>  (429) 
True

>  <molecule_chembl_id>  (429) 
CHEMBL596672

>  <target_organism>  (429) 
Homo sapiens

>  <standard_units>  (429) 
nM

>  <record_id>  (429) 
884358

>  <document_chembl_id>  (429) 
CHEMBL1159120

>  <bao_format>  (429) 
BAO_0000357

>  <data_validity_description>  (429) 
None

>  <activity_id>  (429) 
3106766

>  <standard_type>  (429) 
IC50

>  <target_chembl_id>  (429) 
CHEMBL202

>  <data_validity_comment>  (429) 
None

>  <published_value>  (429) 
4

>  <document_year>  (429) 
2010

>  <target_pref_name>  (429) 
Dihydrofolate reductase

>  <assay_chembl_id>  (429) 
CHEMBL1073056

>  <standard_relation>  (429) 
=

>  <assay_description>  (429) 
Inhibition of human DHFR at 30 degC under pH 7.4 by spectrophotometry

>  <published_relation>  (429) 
=

>  <standard_value>  (429) 
4000

>  <qudt_units>  (429) 
http://www.openphacts.org/units/Nanomolar

>  <target_tax_id>  (429) 
9606

>  <bao_label>  (429) 
single protein format

>  <published_units>  (429) 
uM

>  <pchembl_value>  (429) 
5.4

>  <published_type>  (429) 
IC50

>  <activity_comment>  (429) 
None

$$$$

     RDKit          

 24 27  0  0  0  0  0  0  0  0999 V2000
    0.0000    0.0000    0.0000 C   0  0  0  0  0  0  0  0  0  0  0  0
    0.0000    0.0000    0.0000 C   0  0  0  0  0  0  0  0  0  0  0  0
    0.0000    0.0000    0.0000 C   0  0  0  0  0  0  0  0  0  0  0  0
    0.0000    0.0000    0.0000 C   0  0  0  0  0  0  0  0  0  0  0  0
    0.0000    0.0000    0.0000 C   0  0  0  0  0  0  0  0  0  0  0  0
    0.0000    0.0000    0.0000 O   0  0  0  0  0  0  0  0  0  0  0  0
    0.0000    0.0000    0.0000 C   0  0  0  0  0  0  0  0  0  0  0  0
    0.0000    0.0000    0.0000 N   0  0  0  0  0  0  0  0  0  0  0  0
    0.0000    0.0000    0.0000 C   0  0  0  0  0  0  0  0  0  0  0  0
    0.0000    0.0000    0.0000 N   0  0  0  0  0  0  0  0  0  0  0  0
    0.0000    0.0000    0.0000 N   0  0  0  0  0  0  0  0  0  0  0  0
    0.0000    0.0000    0.0000 C   0  0  0  0  0  0  0  0  0  0  0  0
    0.0000    0.0000    0.0000 N   0  0  0  0  0  0  0  0  0  0  0  0
    0.0000    0.0000    0.0000 C   0  0  0  0  0  0  0  0  0  0  0  0
    0.0000    0.0000    0.0000 C   0  0  0  0  0  0  0  0  0  0  0  0
    0.0000    0.0000    0.0000 C   0  0  0  0  0  0  0  0  0  0  0  0
    0.0000    0.0000    0.0000 C   0  0  0  0  0  0  0  0  0  0  0  0
    0.0000    0.0000    0.0000 C   0  0  0  0  0  0  0  0  0  0  0  0
    0.0000    0.0000    0.0000 C   0  0  0  0  0  0  0  0  0  0  0  0
    0.0000    0.0000    0.0000 C   0  0  0  0  0  0  0  0  0  0  0  0
    0.0000    0.0000    0.0000 C   0  0  0  0  0  0  0  0  0  0  0  0
    0.0000    0.0000    0.0000 C   0  0  0  0  0  0  0  0  0  0  0  0
    0.0000    0.0000    0.0000 C   0  0  0  0  0  0  0  0  0  0  0  0
    0.0000    0.0000    0.0000 C   0  0  0  0  0  0  0  0  0  0  0  0
  1  2  1  0
  2  3  2  0
  3  4  1  0
  4  5  2  0
  5  6  1  0
  6  7  1  0
  7  8  2  0
  8  9  1  0
  9 10  1  0
  9 11  2  0
 11 12  1  0
 12 13  1  0
 12 14  2  0
  2 15  1  0
 15 16  2  0
 16 17  1  0
 17 18  2  0
 18 19  1  0
 19 20  2  0
 20 21  1  0
 21 22  2  0
 22 23  1  0
 23 24  2  0
 14  4  1  0
 14  7  1  0
 24 15  1  0
 24 19  1  0
M  END
>  <pIC50>  (430) 
5.0

>  <ChEMBL_ID>  (430) 
CHEMBL1080403

>  <document_journal>  (430) 
J. Med. Chem.

>  <bao_endpoint>  (430) 
BAO_0000190

>  <potential_duplicate>  (430) 
False

>  <uo_units>  (430) 
UO_0000065

>  <canonical_smiles>  (430) 
C\C(=C\c1coc2nc(N)nc(N)c12)\c3cccc4ccccc34

>  <parent_molecule_chembl_id>  (430) 
CHEMBL1080403

>  <assay_type>  (430) 
B

>  <src_id>  (430) 
1

>  <ligand_efficiency>  (430) 
{u'le': u'0.28', u'bei': u'15.8', u'sei': u'5.5', u'lle': u'1.54'}

>  <standard_flag>  (430) 
True

>  <molecule_chembl_id>  (430) 
CHEMBL1080403

>  <target_organism>  (430) 
Homo sapiens

>  <standard_units>  (430) 
nM

>  <record_id>  (430) 
896282

>  <document_chembl_id>  (430) 
CHEMBL1155389

>  <bao_format>  (430) 
BAO_0000357

>  <data_validity_description>  (430) 
None

>  <activity_id>  (430) 
3186231

>  <standard_type>  (430) 
IC50

>  <target_chembl_id>  (430) 
CHEMBL202

>  <data_validity_comment>  (430) 
None

>  <published_value>  (430) 
10

>  <document_year>  (430) 
2010

>  <target_pref_name>  (430) 
Dihydrofolate reductase

>  <assay_chembl_id>  (430) 
CHEMBL1111495

>  <standard_relation>  (430) 
=

>  <assay_description>  (430) 
Inhibition of DHFR

>  <published_relation>  (430) 
=

>  <standard_value>  (430) 
10000

>  <qudt_units>  (430) 
http://www.openphacts.org/units/Nanomolar

>  <target_tax_id>  (430) 
9606

>  <bao_label>  (430) 
single protein format

>  <published_units>  (430) 
uM

>  <pchembl_value>  (430) 
5

>  <published_type>  (430) 
IC50

>  <activity_comment>  (430) 
None

$$$$

     RDKit          

 41 45  0  0  0  0  0  0  0  0999 V2000
    0.0000    0.0000    0.0000 C   0  0  0  0  0  0  0  0  0  0  0  0
    0.0000    0.0000    0.0000 C   0  0  0  0  0  0  0  0  0  0  0  0
    0.0000    0.0000    0.0000 C   0  0  0  0  0  0  0  0  0  0  0  0
    0.0000    0.0000    0.0000 S   0  0  0  0  0  0  0  0  0  0  0  0
    0.0000    0.0000    0.0000 C   0  0  0  0  0  0  0  0  0  0  0  0
    0.0000    0.0000    0.0000 N   0  0  0  0  0  0  0  0  0  0  0  0
    0.0000    0.0000    0.0000 C   0  0  0  0  0  0  0  0  0  0  0  0
    0.0000    0.0000    0.0000 C   0  0  0  0  0  0  0  0  0  0  0  0
    0.0000    0.0000    0.0000 C   0  0  0  0  0  0  0  0  0  0  0  0
    0.0000    0.0000    0.0000 C   0  0  0  0  0  0  0  0  0  0  0  0
    0.0000    0.0000    0.0000 C   0  0  0  0  0  0  0  0  0  0  0  0
    0.0000    0.0000    0.0000 C   0  0  0  0  0  0  0  0  0  0  0  0
    0.0000    0.0000    0.0000 C   0  0  0  0  0  0  0  0  0  0  0  0
    0.0000    0.0000    0.0000 O   0  0  0  0  0  0  0  0  0  0  0  0
    0.0000    0.0000    0.0000 N   0  0  0  0  0  0  0  0  0  0  0  0
    0.0000    0.0000    0.0000 C   0  0  0  0  0  0  0  0  0  0  0  0
    0.0000    0.0000    0.0000 C   0  0  0  0  0  0  0  0  0  0  0  0
    0.0000    0.0000    0.0000 C   0  0  0  0  0  0  0  0  0  0  0  0
    0.0000    0.0000    0.0000 C   0  0  0  0  0  0  0  0  0  0  0  0
    0.0000    0.0000    0.0000 C   0  0  0  0  0  0  0  0  0  0  0  0
    0.0000    0.0000    0.0000 C   0  0  0  0  0  0  0  0  0  0  0  0
    0.0000    0.0000    0.0000 C   0  0  0  0  0  0  0  0  0  0  0  0
    0.0000    0.0000    0.0000 N   0  0  0  0  0  0  0  0  0  0  0  0
    0.0000    0.0000    0.0000 C   0  0  0  0  0  0  0  0  0  0  0  0
    0.0000    0.0000    0.0000 C   0  0  0  0  0  0  0  0  0  0  0  0
    0.0000    0.0000    0.0000 C   0  0  0  0  0  0  0  0  0  0  0  0
    0.0000    0.0000    0.0000 C   0  0  0  0  0  0  0  0  0  0  0  0
    0.0000    0.0000    0.0000 C   0  0  0  0  0  0  0  0  0  0  0  0
    0.0000    0.0000    0.0000 C   0  0  0  0  0  0  0  0  0  0  0  0
    0.0000    0.0000    0.0000 C   0  0  0  0  0  0  0  0  0  0  0  0
    0.0000    0.0000    0.0000 C   0  0  0  0  0  0  0  0  0  0  0  0
    0.0000    0.0000    0.0000 C   0  0  0  0  0  0  0  0  0  0  0  0
    0.0000    0.0000    0.0000 C   0  0  0  0  0  0  0  0  0  0  0  0
    0.0000    0.0000    0.0000 C   0  0  0  0  0  0  0  0  0  0  0  0
    0.0000    0.0000    0.0000 C   0  0  0  0  0  0  0  0  0  0  0  0
    0.0000    0.0000    0.0000 C   0  0  0  0  0  0  0  0  0  0  0  0
    0.0000    0.0000    0.0000 C   0  0  0  0  0  0  0  0  0  0  0  0
    0.0000    0.0000    0.0000 C   0  0  0  0  0  0  0  0  0  0  0  0
    0.0000    0.0000    0.0000 C   0  0  0  0  0  0  0  0  0  0  0  0
    0.0000    0.0000    0.0000 C   0  0  0  0  0  0  0  0  0  0  0  0
    0.0000    0.0000    0.0000 C   0  0  0  0  0  0  0  0  0  0  0  0
  1  2  2  0
  2  3  1  0
  3  4  1  0
  4  5  1  0
  5  6  2  0
  6  7  1  0
  7  8  2  0
  8  9  1  0
  9 10  2  0
 10 11  1  0
 11 12  2  0
 12 13  1  0
 13 14  2  0
 13 15  1  0
 15 16  1  0
 16 17  1  0
 17 18  2  0
 18 19  1  0
 19 20  2  0
 20 21  1  0
 21 22  2  0
 10 23  1  0
 23 24  1  0
 24 25  1  0
 25 26  2  0
 26 27  1  0
 27 28  2  0
 28 29  1  0
 29 30  2  0
 30 31  1  0
 31 32  2  0
 23 33  1  0
 33 34  1  0
 34 35  2  0
 35 36  1  0
 36 37  2  0
 37 38  1  0
 38 39  2  0
 39 40  1  0
 40 41  2  0
 15  5  1  0
 12  7  1  0
 22 17  1  0
 32 27  1  0
 41 36  1  0
M  END
>  <pIC50>  (431) 
6.16

>  <ChEMBL_ID>  (431) 
CHEMBL1093994

>  <document_journal>  (431) 
Bioorg. Med. Chem.

>  <bao_endpoint>  (431) 
BAO_0000190

>  <potential_duplicate>  (431) 
False

>  <uo_units>  (431) 
UO_0000065

>  <canonical_smiles>  (431) 
C=CCSC1=Nc2ccc(cc2C(=O)N1Cc3ccccc3)N(C\C=C\c4ccccc4)C\C=C\c5ccccc5

>  <parent_molecule_chembl_id>  (431) 
CHEMBL1093994

>  <assay_type>  (431) 
B

>  <src_id>  (431) 
1

>  <ligand_efficiency>  (431) 
{u'le': u'0.21', u'bei': u'11.08', u'sei': u'10.06', u'lle': u'-2.55'}

>  <standard_flag>  (431) 
True

>  <molecule_chembl_id>  (431) 
CHEMBL1093994

>  <target_organism>  (431) 
Homo sapiens

>  <standard_units>  (431) 
nM

>  <record_id>  (431) 
904526

>  <document_chembl_id>  (431) 
CHEMBL1156232

>  <bao_format>  (431) 
BAO_0000357

>  <data_validity_description>  (431) 
None

>  <activity_id>  (431) 
3237460

>  <standard_type>  (431) 
IC50

>  <target_chembl_id>  (431) 
CHEMBL202

>  <data_validity_comment>  (431) 
None

>  <published_value>  (431) 
0.7

>  <document_year>  (431) 
2010

>  <target_pref_name>  (431) 
Dihydrofolate reductase

>  <assay_chembl_id>  (431) 
CHEMBL1113554

>  <standard_relation>  (431) 
=

>  <assay_description>  (431) 
Inhibition of human DHFR after 2 mins

>  <published_relation>  (431) 
=

>  <standard_value>  (431) 
700

>  <qudt_units>  (431) 
http://www.openphacts.org/units/Nanomolar

>  <target_tax_id>  (431) 
9606

>  <bao_label>  (431) 
single protein format

>  <published_units>  (431) 
uM

>  <pchembl_value>  (431) 
6.16

>  <published_type>  (431) 
IC50

>  <activity_comment>  (431) 
None

$$$$

     RDKit          

 32 35  0  0  0  0  0  0  0  0999 V2000
    0.0000    0.0000    0.0000 C   0  0  0  0  0  0  0  0  0  0  0  0
    0.0000    0.0000    0.0000 C   0  0  0  0  0  0  0  0  0  0  0  0
    0.0000    0.0000    0.0000 C   0  0  0  0  0  0  0  0  0  0  0  0
    0.0000    0.0000    0.0000 S   0  0  0  0  0  0  0  0  0  0  0  0
    0.0000    0.0000    0.0000 C   0  0  0  0  0  0  0  0  0  0  0  0
    0.0000    0.0000    0.0000 N   0  0  0  0  0  0  0  0  0  0  0  0
    0.0000    0.0000    0.0000 C   0  0  0  0  0  0  0  0  0  0  0  0
    0.0000    0.0000    0.0000 C   0  0  0  0  0  0  0  0  0  0  0  0
    0.0000    0.0000    0.0000 C   0  0  0  0  0  0  0  0  0  0  0  0
    0.0000    0.0000    0.0000 C   0  0  0  0  0  0  0  0  0  0  0  0
    0.0000    0.0000    0.0000 N   0  0  0  0  0  0  0  0  0  0  0  0
    0.0000    0.0000    0.0000 C   0  0  0  0  0  0  0  0  0  0  0  0
    0.0000    0.0000    0.0000 C   0  0  0  0  0  0  0  0  0  0  0  0
    0.0000    0.0000    0.0000 C   0  0  0  0  0  0  0  0  0  0  0  0
    0.0000    0.0000    0.0000 C   0  0  0  0  0  0  0  0  0  0  0  0
    0.0000    0.0000    0.0000 C   0  0  0  0  0  0  0  0  0  0  0  0
    0.0000    0.0000    0.0000 C   0  0  0  0  0  0  0  0  0  0  0  0
    0.0000    0.0000    0.0000 C   0  0  0  0  0  0  0  0  0  0  0  0
    0.0000    0.0000    0.0000 C   0  0  0  0  0  0  0  0  0  0  0  0
    0.0000    0.0000    0.0000 C   0  0  0  0  0  0  0  0  0  0  0  0
    0.0000    0.0000    0.0000 C   0  0  0  0  0  0  0  0  0  0  0  0
    0.0000    0.0000    0.0000 C   0  0  0  0  0  0  0  0  0  0  0  0
    0.0000    0.0000    0.0000 C   0  0  0  0  0  0  0  0  0  0  0  0
    0.0000    0.0000    0.0000 O   0  0  0  0  0  0  0  0  0  0  0  0
    0.0000    0.0000    0.0000 N   0  0  0  0  0  0  0  0  0  0  0  0
    0.0000    0.0000    0.0000 C   0  0  0  0  0  0  0  0  0  0  0  0
    0.0000    0.0000    0.0000 C   0  0  0  0  0  0  0  0  0  0  0  0
    0.0000    0.0000    0.0000 C   0  0  0  0  0  0  0  0  0  0  0  0
    0.0000    0.0000    0.0000 C   0  0  0  0  0  0  0  0  0  0  0  0
    0.0000    0.0000    0.0000 C   0  0  0  0  0  0  0  0  0  0  0  0
    0.0000    0.0000    0.0000 C   0  0  0  0  0  0  0  0  0  0  0  0
    0.0000    0.0000    0.0000 C   0  0  0  0  0  0  0  0  0  0  0  0
  1  2  2  0
  2  3  1  0
  3  4  1  0
  4  5  1  0
  5  6  2  0
  6  7  1  0
  7  8  2  0
  8  9  1  0
  9 10  2  0
 10 11  1  0
 11 12  1  0
 12 13  1  0
 13 14  2  0
 14 15  1  0
 15 16  2  0
 16 17  1  0
 17 18  2  0
 18 19  1  0
 19 20  2  0
 10 21  1  0
 21 22  2  0
 22 23  1  0
 23 24  2  0
 23 25  1  0
 25 26  1  0
 26 27  1  0
 27 28  2  0
 28 29  1  0
 29 30  2  0
 30 31  1  0
 31 32  2  0
 25  5  1  0
 22  7  1  0
 20 15  1  0
 32 27  1  0
M  END
>  <pIC50>  (432) 
5.52

>  <ChEMBL_ID>  (432) 
CHEMBL1093993

>  <document_journal>  (432) 
Bioorg. Med. Chem.

>  <bao_endpoint>  (432) 
BAO_0000190

>  <potential_duplicate>  (432) 
False

>  <uo_units>  (432) 
UO_0000065

>  <canonical_smiles>  (432) 
C=CCSC1=Nc2ccc(NC\C=C\c3ccccc3)cc2C(=O)N1Cc4ccccc4

>  <parent_molecule_chembl_id>  (432) 
CHEMBL1093993

>  <assay_type>  (432) 
B

>  <src_id>  (432) 
1

>  <ligand_efficiency>  (432) 
{u'le': u'0.24', u'bei': u'12.56', u'sei': u'7.89', u'lle': u'-0.78'}

>  <standard_flag>  (432) 
True

>  <molecule_chembl_id>  (432) 
CHEMBL1093993

>  <target_organism>  (432) 
Homo sapiens

>  <standard_units>  (432) 
nM

>  <record_id>  (432) 
904525

>  <document_chembl_id>  (432) 
CHEMBL1156232

>  <bao_format>  (432) 
BAO_0000357

>  <data_validity_description>  (432) 
None

>  <activity_id>  (432) 
3237461

>  <standard_type>  (432) 
IC50

>  <target_chembl_id>  (432) 
CHEMBL202

>  <data_validity_comment>  (432) 
None

>  <published_value>  (432) 
3

>  <document_year>  (432) 
2010

>  <target_pref_name>  (432) 
Dihydrofolate reductase

>  <assay_chembl_id>  (432) 
CHEMBL1113554

>  <standard_relation>  (432) 
=

>  <assay_description>  (432) 
Inhibition of human DHFR after 2 mins

>  <published_relation>  (432) 
=

>  <standard_value>  (432) 
3000

>  <qudt_units>  (432) 
http://www.openphacts.org/units/Nanomolar

>  <target_tax_id>  (432) 
9606

>  <bao_label>  (432) 
single protein format

>  <published_units>  (432) 
uM

>  <pchembl_value>  (432) 
5.52

>  <published_type>  (432) 
IC50

>  <activity_comment>  (432) 
None

$$$$

     RDKit          

 39 43  0  0  0  0  0  0  0  0999 V2000
    0.0000    0.0000    0.0000 C   0  0  0  0  0  0  0  0  0  0  0  0
    0.0000    0.0000    0.0000 S   0  0  0  0  0  0  0  0  0  0  0  0
    0.0000    0.0000    0.0000 C   0  0  0  0  0  0  0  0  0  0  0  0
    0.0000    0.0000    0.0000 N   0  0  0  0  0  0  0  0  0  0  0  0
    0.0000    0.0000    0.0000 C   0  0  0  0  0  0  0  0  0  0  0  0
    0.0000    0.0000    0.0000 C   0  0  0  0  0  0  0  0  0  0  0  0
    0.0000    0.0000    0.0000 C   0  0  0  0  0  0  0  0  0  0  0  0
    0.0000    0.0000    0.0000 C   0  0  0  0  0  0  0  0  0  0  0  0
    0.0000    0.0000    0.0000 C   0  0  0  0  0  0  0  0  0  0  0  0
    0.0000    0.0000    0.0000 C   0  0  0  0  0  0  0  0  0  0  0  0
    0.0000    0.0000    0.0000 C   0  0  0  0  0  0  0  0  0  0  0  0
    0.0000    0.0000    0.0000 O   0  0  0  0  0  0  0  0  0  0  0  0
    0.0000    0.0000    0.0000 N   0  0  0  0  0  0  0  0  0  0  0  0
    0.0000    0.0000    0.0000 C   0  0  0  0  0  0  0  0  0  0  0  0
    0.0000    0.0000    0.0000 C   0  0  0  0  0  0  0  0  0  0  0  0
    0.0000    0.0000    0.0000 C   0  0  0  0  0  0  0  0  0  0  0  0
    0.0000    0.0000    0.0000 C   0  0  0  0  0  0  0  0  0  0  0  0
    0.0000    0.0000    0.0000 C   0  0  0  0  0  0  0  0  0  0  0  0
    0.0000    0.0000    0.0000 C   0  0  0  0  0  0  0  0  0  0  0  0
    0.0000    0.0000    0.0000 C   0  0  0  0  0  0  0  0  0  0  0  0
    0.0000    0.0000    0.0000 N   0  0  0  0  0  0  0  0  0  0  0  0
    0.0000    0.0000    0.0000 C   0  0  0  0  0  0  0  0  0  0  0  0
    0.0000    0.0000    0.0000 C   0  0  0  0  0  0  0  0  0  0  0  0
    0.0000    0.0000    0.0000 C   0  0  0  0  0  0  0  0  0  0  0  0
    0.0000    0.0000    0.0000 C   0  0  0  0  0  0  0  0  0  0  0  0
    0.0000    0.0000    0.0000 C   0  0  0  0  0  0  0  0  0  0  0  0
    0.0000    0.0000    0.0000 C   0  0  0  0  0  0  0  0  0  0  0  0
    0.0000    0.0000    0.0000 C   0  0  0  0  0  0  0  0  0  0  0  0
    0.0000    0.0000    0.0000 C   0  0  0  0  0  0  0  0  0  0  0  0
    0.0000    0.0000    0.0000 C   0  0  0  0  0  0  0  0  0  0  0  0
    0.0000    0.0000    0.0000 C   0  0  0  0  0  0  0  0  0  0  0  0
    0.0000    0.0000    0.0000 C   0  0  0  0  0  0  0  0  0  0  0  0
    0.0000    0.0000    0.0000 C   0  0  0  0  0  0  0  0  0  0  0  0
    0.0000    0.0000    0.0000 C   0  0  0  0  0  0  0  0  0  0  0  0
    0.0000    0.0000    0.0000 C   0  0  0  0  0  0  0  0  0  0  0  0
    0.0000    0.0000    0.0000 C   0  0  0  0  0  0  0  0  0  0  0  0
    0.0000    0.0000    0.0000 C   0  0  0  0  0  0  0  0  0  0  0  0
    0.0000    0.0000    0.0000 C   0  0  0  0  0  0  0  0  0  0  0  0
    0.0000    0.0000    0.0000 C   0  0  0  0  0  0  0  0  0  0  0  0
  1  2  1  0
  2  3  1  0
  3  4  2  0
  4  5  1  0
  5  6  2  0
  6  7  1  0
  7  8  2  0
  8  9  1  0
  9 10  2  0
 10 11  1  0
 11 12  2  0
 11 13  1  0
 13 14  1  0
 14 15  1  0
 15 16  2  0
 16 17  1  0
 17 18  2  0
 18 19  1  0
 19 20  2  0
  8 21  1  0
 21 22  1  0
 22 23  1  0
 23 24  2  0
 24 25  1  0
 25 26  2  0
 26 27  1  0
 27 28  2  0
 28 29  1  0
 29 30  2  0
 21 31  1  0
 31 32  1  0
 32 33  2  0
 33 34  1  0
 34 35  2  0
 35 36  1  0
 36 37  2  0
 37 38  1  0
 38 39  2  0
 13  3  1  0
 10  5  1  0
 20 15  1  0
 30 25  1  0
 39 34  1  0
M  END
>  <pIC50>  (433) 
6.1

>  <ChEMBL_ID>  (433) 
CHEMBL1090563

>  <document_journal>  (433) 
Bioorg. Med. Chem.

>  <bao_endpoint>  (433) 
BAO_0000190

>  <potential_duplicate>  (433) 
False

>  <uo_units>  (433) 
UO_0000065

>  <canonical_smiles>  (433) 
CSC1=Nc2ccc(cc2C(=O)N1Cc3ccccc3)N(C\C=C\c4ccccc4)C\C=C\c5ccccc5

>  <parent_molecule_chembl_id>  (433) 
CHEMBL1090563

>  <assay_type>  (433) 
B

>  <src_id>  (433) 
1

>  <ligand_efficiency>  (433) 
{u'le': u'0.21', u'bei': u'11.51', u'sei': u'9.96', u'lle': u'-1.98'}

>  <standard_flag>  (433) 
True

>  <molecule_chembl_id>  (433) 
CHEMBL1090563

>  <target_organism>  (433) 
Homo sapiens

>  <standard_units>  (433) 
nM

>  <record_id>  (433) 
904524

>  <document_chembl_id>  (433) 
CHEMBL1156232

>  <bao_format>  (433) 
BAO_0000357

>  <data_validity_description>  (433) 
None

>  <activity_id>  (433) 
3237462

>  <standard_type>  (433) 
IC50

>  <target_chembl_id>  (433) 
CHEMBL202

>  <data_validity_comment>  (433) 
None

>  <published_value>  (433) 
0.8

>  <document_year>  (433) 
2010

>  <target_pref_name>  (433) 
Dihydrofolate reductase

>  <assay_chembl_id>  (433) 
CHEMBL1113554

>  <standard_relation>  (433) 
=

>  <assay_description>  (433) 
Inhibition of human DHFR after 2 mins

>  <published_relation>  (433) 
=

>  <standard_value>  (433) 
800

>  <qudt_units>  (433) 
http://www.openphacts.org/units/Nanomolar

>  <target_tax_id>  (433) 
9606

>  <bao_label>  (433) 
single protein format

>  <published_units>  (433) 
uM

>  <pchembl_value>  (433) 
6.1

>  <published_type>  (433) 
IC50

>  <activity_comment>  (433) 
None

$$$$

     RDKit          

 30 33  0  0  0  0  0  0  0  0999 V2000
    0.0000    0.0000    0.0000 C   0  0  0  0  0  0  0  0  0  0  0  0
    0.0000    0.0000    0.0000 S   0  0  0  0  0  0  0  0  0  0  0  0
    0.0000    0.0000    0.0000 C   0  0  0  0  0  0  0  0  0  0  0  0
    0.0000    0.0000    0.0000 N   0  0  0  0  0  0  0  0  0  0  0  0
    0.0000    0.0000    0.0000 C   0  0  0  0  0  0  0  0  0  0  0  0
    0.0000    0.0000    0.0000 C   0  0  0  0  0  0  0  0  0  0  0  0
    0.0000    0.0000    0.0000 C   0  0  0  0  0  0  0  0  0  0  0  0
    0.0000    0.0000    0.0000 C   0  0  0  0  0  0  0  0  0  0  0  0
    0.0000    0.0000    0.0000 N   0  0  0  0  0  0  0  0  0  0  0  0
    0.0000    0.0000    0.0000 C   0  0  0  0  0  0  0  0  0  0  0  0
    0.0000    0.0000    0.0000 C   0  0  0  0  0  0  0  0  0  0  0  0
    0.0000    0.0000    0.0000 C   0  0  0  0  0  0  0  0  0  0  0  0
    0.0000    0.0000    0.0000 C   0  0  0  0  0  0  0  0  0  0  0  0
    0.0000    0.0000    0.0000 C   0  0  0  0  0  0  0  0  0  0  0  0
    0.0000    0.0000    0.0000 C   0  0  0  0  0  0  0  0  0  0  0  0
    0.0000    0.0000    0.0000 C   0  0  0  0  0  0  0  0  0  0  0  0
    0.0000    0.0000    0.0000 C   0  0  0  0  0  0  0  0  0  0  0  0
    0.0000    0.0000    0.0000 C   0  0  0  0  0  0  0  0  0  0  0  0
    0.0000    0.0000    0.0000 C   0  0  0  0  0  0  0  0  0  0  0  0
    0.0000    0.0000    0.0000 C   0  0  0  0  0  0  0  0  0  0  0  0
    0.0000    0.0000    0.0000 C   0  0  0  0  0  0  0  0  0  0  0  0
    0.0000    0.0000    0.0000 O   0  0  0  0  0  0  0  0  0  0  0  0
    0.0000    0.0000    0.0000 N   0  0  0  0  0  0  0  0  0  0  0  0
    0.0000    0.0000    0.0000 C   0  0  0  0  0  0  0  0  0  0  0  0
    0.0000    0.0000    0.0000 C   0  0  0  0  0  0  0  0  0  0  0  0
    0.0000    0.0000    0.0000 C   0  0  0  0  0  0  0  0  0  0  0  0
    0.0000    0.0000    0.0000 C   0  0  0  0  0  0  0  0  0  0  0  0
    0.0000    0.0000    0.0000 C   0  0  0  0  0  0  0  0  0  0  0  0
    0.0000    0.0000    0.0000 C   0  0  0  0  0  0  0  0  0  0  0  0
    0.0000    0.0000    0.0000 C   0  0  0  0  0  0  0  0  0  0  0  0
  1  2  1  0
  2  3  1  0
  3  4  2  0
  4  5  1  0
  5  6  2  0
  6  7  1  0
  7  8  2  0
  8  9  1  0
  9 10  1  0
 10 11  1  0
 11 12  2  0
 12 13  1  0
 13 14  2  0
 14 15  1  0
 15 16  2  0
 16 17  1  0
 17 18  2  0
  8 19  1  0
 19 20  2  0
 20 21  1  0
 21 22  2  0
 21 23  1  0
 23 24  1  0
 24 25  1  0
 25 26  2  0
 26 27  1  0
 27 28  2  0
 28 29  1  0
 29 30  2  0
 23  3  1  0
 20  5  1  0
 18 13  1  0
 30 25  1  0
M  END
>  <pIC50>  (434) 
5.7

>  <ChEMBL_ID>  (434) 
CHEMBL1090897

>  <document_journal>  (434) 
Bioorg. Med. Chem.

>  <bao_endpoint>  (434) 
BAO_0000190

>  <potential_duplicate>  (434) 
False

>  <uo_units>  (434) 
UO_0000065

>  <canonical_smiles>  (434) 
CSC1=Nc2ccc(NC\C=C\c3ccccc3)cc2C(=O)N1Cc4ccccc4

>  <parent_molecule_chembl_id>  (434) 
CHEMBL1090897

>  <assay_type>  (434) 
B

>  <src_id>  (434) 
1

>  <ligand_efficiency>  (434) 
{u'le': u'0.26', u'bei': u'13.78', u'sei': u'8.14', u'lle': u'0.02'}

>  <standard_flag>  (434) 
True

>  <molecule_chembl_id>  (434) 
CHEMBL1090897

>  <target_organism>  (434) 
Homo sapiens

>  <standard_units>  (434) 
nM

>  <record_id>  (434) 
904523

>  <document_chembl_id>  (434) 
CHEMBL1156232

>  <bao_format>  (434) 
BAO_0000357

>  <data_validity_description>  (434) 
None

>  <activity_id>  (434) 
3237463

>  <standard_type>  (434) 
IC50

>  <target_chembl_id>  (434) 
CHEMBL202

>  <data_validity_comment>  (434) 
None

>  <published_value>  (434) 
2

>  <document_year>  (434) 
2010

>  <target_pref_name>  (434) 
Dihydrofolate reductase

>  <assay_chembl_id>  (434) 
CHEMBL1113554

>  <standard_relation>  (434) 
=

>  <assay_description>  (434) 
Inhibition of human DHFR after 2 mins

>  <published_relation>  (434) 
=

>  <standard_value>  (434) 
2000

>  <qudt_units>  (434) 
http://www.openphacts.org/units/Nanomolar

>  <target_tax_id>  (434) 
9606

>  <bao_label>  (434) 
single protein format

>  <published_units>  (434) 
uM

>  <pchembl_value>  (434) 
5.7

>  <published_type>  (434) 
IC50

>  <activity_comment>  (434) 
None

$$$$

     RDKit          

 25 27  0  0  0  0  0  0  0  0999 V2000
    0.0000    0.0000    0.0000 C   0  0  0  0  0  0  0  0  0  0  0  0
    0.0000    0.0000    0.0000 S   0  0  0  0  0  0  0  0  0  0  0  0
    0.0000    0.0000    0.0000 C   0  0  0  0  0  0  0  0  0  0  0  0
    0.0000    0.0000    0.0000 N   0  0  0  0  0  0  0  0  0  0  0  0
    0.0000    0.0000    0.0000 C   0  0  0  0  0  0  0  0  0  0  0  0
    0.0000    0.0000    0.0000 C   0  0  0  0  0  0  0  0  0  0  0  0
    0.0000    0.0000    0.0000 C   0  0  0  0  0  0  0  0  0  0  0  0
    0.0000    0.0000    0.0000 C   0  0  0  0  0  0  0  0  0  0  0  0
    0.0000    0.0000    0.0000 C   0  0  0  0  0  0  0  0  0  0  0  0
    0.0000    0.0000    0.0000 C   0  0  0  0  0  0  0  0  0  0  0  0
    0.0000    0.0000    0.0000 C   0  0  0  0  0  0  0  0  0  0  0  0
    0.0000    0.0000    0.0000 O   0  0  0  0  0  0  0  0  0  0  0  0
    0.0000    0.0000    0.0000 N   0  0  0  0  0  0  0  0  0  0  0  0
    0.0000    0.0000    0.0000 C   0  0  0  0  0  0  0  0  0  0  0  0
    0.0000    0.0000    0.0000 C   0  0  0  0  0  0  0  0  0  0  0  0
    0.0000    0.0000    0.0000 C   0  0  0  0  0  0  0  0  0  0  0  0
    0.0000    0.0000    0.0000 C   0  0  0  0  0  0  0  0  0  0  0  0
    0.0000    0.0000    0.0000 C   0  0  0  0  0  0  0  0  0  0  0  0
    0.0000    0.0000    0.0000 C   0  0  0  0  0  0  0  0  0  0  0  0
    0.0000    0.0000    0.0000 C   0  0  0  0  0  0  0  0  0  0  0  0
    0.0000    0.0000    0.0000 N   0  0  0  0  0  0  0  0  0  0  0  0
    0.0000    0.0000    0.0000 C   0  0  0  0  0  0  0  0  0  0  0  0
    0.0000    0.0000    0.0000 C   0  0  0  0  0  0  0  0  0  0  0  0
    0.0000    0.0000    0.0000 C   0  0  0  0  0  0  0  0  0  0  0  0
    0.0000    0.0000    0.0000 C   0  0  0  0  0  0  0  0  0  0  0  0
  1  2  1  0
  2  3  1  0
  3  4  2  0
  4  5  1  0
  5  6  2  0
  6  7  1  0
  7  8  2  0
  8  9  1  0
  9 10  2  0
 10 11  1  0
 11 12  2  0
 11 13  1  0
 13 14  1  0
 14 15  1  0
 15 16  2  0
 16 17  1  0
 17 18  2  0
 18 19  1  0
 19 20  2  0
  8 21  1  0
 21 22  1  0
 21 23  1  0
 23 24  1  0
 24 25  2  0
 13  3  1  0
 10  5  1  0
 20 15  1  0
M  END
>  <pIC50>  (435) 
5.7

>  <ChEMBL_ID>  (435) 
CHEMBL1090896

>  <document_journal>  (435) 
Bioorg. Med. Chem.

>  <bao_endpoint>  (435) 
BAO_0000190

>  <potential_duplicate>  (435) 
False

>  <uo_units>  (435) 
UO_0000065

>  <canonical_smiles>  (435) 
CSC1=Nc2ccc(cc2C(=O)N1Cc3ccccc3)N(C)CC=C

>  <parent_molecule_chembl_id>  (435) 
CHEMBL1090896

>  <assay_type>  (435) 
B

>  <src_id>  (435) 
1

>  <ligand_efficiency>  (435) 
{u'le': u'0.31', u'bei': u'16.21', u'sei': u'9.31', u'lle': u'1.1'}

>  <standard_flag>  (435) 
True

>  <molecule_chembl_id>  (435) 
CHEMBL1090896

>  <target_organism>  (435) 
Homo sapiens

>  <standard_units>  (435) 
nM

>  <record_id>  (435) 
904522

>  <document_chembl_id>  (435) 
CHEMBL1156232

>  <bao_format>  (435) 
BAO_0000357

>  <data_validity_description>  (435) 
None

>  <activity_id>  (435) 
3237464

>  <standard_type>  (435) 
IC50

>  <target_chembl_id>  (435) 
CHEMBL202

>  <data_validity_comment>  (435) 
None

>  <published_value>  (435) 
2

>  <document_year>  (435) 
2010

>  <target_pref_name>  (435) 
Dihydrofolate reductase

>  <assay_chembl_id>  (435) 
CHEMBL1113554

>  <standard_relation>  (435) 
=

>  <assay_description>  (435) 
Inhibition of human DHFR after 2 mins

>  <published_relation>  (435) 
=

>  <standard_value>  (435) 
2000

>  <qudt_units>  (435) 
http://www.openphacts.org/units/Nanomolar

>  <target_tax_id>  (435) 
9606

>  <bao_label>  (435) 
single protein format

>  <published_units>  (435) 
uM

>  <pchembl_value>  (435) 
5.7

>  <published_type>  (435) 
IC50

>  <activity_comment>  (435) 
None

$$$$

     RDKit          

 29 31  0  0  0  0  0  0  0  0999 V2000
    0.0000    0.0000    0.0000 C   0  0  0  0  0  0  0  0  0  0  0  0
    0.0000    0.0000    0.0000 C   0  0  0  0  0  0  0  0  0  0  0  0
    0.0000    0.0000    0.0000 C   0  0  0  0  0  0  0  0  0  0  0  0
    0.0000    0.0000    0.0000 S   0  0  0  0  0  0  0  0  0  0  0  0
    0.0000    0.0000    0.0000 C   0  0  0  0  0  0  0  0  0  0  0  0
    0.0000    0.0000    0.0000 N   0  0  0  0  0  0  0  0  0  0  0  0
    0.0000    0.0000    0.0000 C   0  0  0  0  0  0  0  0  0  0  0  0
    0.0000    0.0000    0.0000 C   0  0  0  0  0  0  0  0  0  0  0  0
    0.0000    0.0000    0.0000 C   0  0  0  0  0  0  0  0  0  0  0  0
    0.0000    0.0000    0.0000 C   0  0  0  0  0  0  0  0  0  0  0  0
    0.0000    0.0000    0.0000 C   0  0  0  0  0  0  0  0  0  0  0  0
    0.0000    0.0000    0.0000 C   0  0  0  0  0  0  0  0  0  0  0  0
    0.0000    0.0000    0.0000 C   0  0  0  0  0  0  0  0  0  0  0  0
    0.0000    0.0000    0.0000 O   0  0  0  0  0  0  0  0  0  0  0  0
    0.0000    0.0000    0.0000 N   0  0  0  0  0  0  0  0  0  0  0  0
    0.0000    0.0000    0.0000 C   0  0  0  0  0  0  0  0  0  0  0  0
    0.0000    0.0000    0.0000 C   0  0  0  0  0  0  0  0  0  0  0  0
    0.0000    0.0000    0.0000 C   0  0  0  0  0  0  0  0  0  0  0  0
    0.0000    0.0000    0.0000 C   0  0  0  0  0  0  0  0  0  0  0  0
    0.0000    0.0000    0.0000 C   0  0  0  0  0  0  0  0  0  0  0  0
    0.0000    0.0000    0.0000 C   0  0  0  0  0  0  0  0  0  0  0  0
    0.0000    0.0000    0.0000 C   0  0  0  0  0  0  0  0  0  0  0  0
    0.0000    0.0000    0.0000 N   0  0  0  0  0  0  0  0  0  0  0  0
    0.0000    0.0000    0.0000 C   0  0  0  0  0  0  0  0  0  0  0  0
    0.0000    0.0000    0.0000 C   0  0  0  0  0  0  0  0  0  0  0  0
    0.0000    0.0000    0.0000 C   0  0  0  0  0  0  0  0  0  0  0  0
    0.0000    0.0000    0.0000 C   0  0  0  0  0  0  0  0  0  0  0  0
    0.0000    0.0000    0.0000 C   0  0  0  0  0  0  0  0  0  0  0  0
    0.0000    0.0000    0.0000 C   0  0  0  0  0  0  0  0  0  0  0  0
  1  2  2  0
  2  3  1  0
  3  4  1  0
  4  5  1  0
  5  6  2  0
  6  7  1  0
  7  8  2  0
  8  9  1  0
  9 10  2  0
 10 11  1  0
 11 12  2  0
 12 13  1  0
 13 14  2  0
 13 15  1  0
 15 16  1  0
 16 17  1  0
 17 18  2  0
 18 19  1  0
 19 20  2  0
 20 21  1  0
 21 22  2  0
 10 23  1  0
 23 24  1  0
 24 25  1  0
 25 26  2  0
 23 27  1  0
 27 28  1  0
 28 29  2  0
 15  5  1  0
 12  7  1  0
 22 17  1  0
M  END
>  <pIC50>  (436) 
6.05

>  <ChEMBL_ID>  (436) 
CHEMBL1093230

>  <document_journal>  (436) 
Bioorg. Med. Chem.

>  <bao_endpoint>  (436) 
BAO_0000190

>  <potential_duplicate>  (436) 
False

>  <uo_units>  (436) 
UO_0000065

>  <canonical_smiles>  (436) 
C=CCSC1=Nc2ccc(cc2C(=O)N1Cc3ccccc3)N(CC=C)CC=C

>  <parent_molecule_chembl_id>  (436) 
CHEMBL1093230

>  <assay_type>  (436) 
B

>  <src_id>  (436) 
1

>  <ligand_efficiency>  (436) 
{u'le': u'0.28', u'bei': u'14.98', u'sei': u'9.88', u'lle': u'0.22'}

>  <standard_flag>  (436) 
True

>  <molecule_chembl_id>  (436) 
CHEMBL1093230

>  <target_organism>  (436) 
Homo sapiens

>  <standard_units>  (436) 
nM

>  <record_id>  (436) 
904471

>  <document_chembl_id>  (436) 
CHEMBL1156232

>  <bao_format>  (436) 
BAO_0000357

>  <data_validity_description>  (436) 
None

>  <activity_id>  (436) 
3237465

>  <standard_type>  (436) 
IC50

>  <target_chembl_id>  (436) 
CHEMBL202

>  <data_validity_comment>  (436) 
None

>  <published_value>  (436) 
0.9

>  <document_year>  (436) 
2010

>  <target_pref_name>  (436) 
Dihydrofolate reductase

>  <assay_chembl_id>  (436) 
CHEMBL1113554

>  <standard_relation>  (436) 
=

>  <assay_description>  (436) 
Inhibition of human DHFR after 2 mins

>  <published_relation>  (436) 
=

>  <standard_value>  (436) 
900

>  <qudt_units>  (436) 
http://www.openphacts.org/units/Nanomolar

>  <target_tax_id>  (436) 
9606

>  <bao_label>  (436) 
single protein format

>  <published_units>  (436) 
uM

>  <pchembl_value>  (436) 
6.05

>  <published_type>  (436) 
IC50

>  <activity_comment>  (436) 
None

$$$$

     RDKit          

 26 28  0  0  0  0  0  0  0  0999 V2000
    0.0000    0.0000    0.0000 C   0  0  0  0  0  0  0  0  0  0  0  0
    0.0000    0.0000    0.0000 C   0  0  0  0  0  0  0  0  0  0  0  0
    0.0000    0.0000    0.0000 C   0  0  0  0  0  0  0  0  0  0  0  0
    0.0000    0.0000    0.0000 N   0  0  0  0  0  0  0  0  0  0  0  0
    0.0000    0.0000    0.0000 C   0  0  0  0  0  0  0  0  0  0  0  0
    0.0000    0.0000    0.0000 C   0  0  0  0  0  0  0  0  0  0  0  0
    0.0000    0.0000    0.0000 C   0  0  0  0  0  0  0  0  0  0  0  0
    0.0000    0.0000    0.0000 C   0  0  0  0  0  0  0  0  0  0  0  0
    0.0000    0.0000    0.0000 N   0  0  0  0  0  0  0  0  0  0  0  0
    0.0000    0.0000    0.0000 C   0  0  0  0  0  0  0  0  0  0  0  0
    0.0000    0.0000    0.0000 S   0  0  0  0  0  0  0  0  0  0  0  0
    0.0000    0.0000    0.0000 C   0  0  0  0  0  0  0  0  0  0  0  0
    0.0000    0.0000    0.0000 C   0  0  0  0  0  0  0  0  0  0  0  0
    0.0000    0.0000    0.0000 C   0  0  0  0  0  0  0  0  0  0  0  0
    0.0000    0.0000    0.0000 N   0  0  0  0  0  0  0  0  0  0  0  0
    0.0000    0.0000    0.0000 C   0  0  0  0  0  0  0  0  0  0  0  0
    0.0000    0.0000    0.0000 C   0  0  0  0  0  0  0  0  0  0  0  0
    0.0000    0.0000    0.0000 C   0  0  0  0  0  0  0  0  0  0  0  0
    0.0000    0.0000    0.0000 C   0  0  0  0  0  0  0  0  0  0  0  0
    0.0000    0.0000    0.0000 C   0  0  0  0  0  0  0  0  0  0  0  0
    0.0000    0.0000    0.0000 C   0  0  0  0  0  0  0  0  0  0  0  0
    0.0000    0.0000    0.0000 C   0  0  0  0  0  0  0  0  0  0  0  0
    0.0000    0.0000    0.0000 C   0  0  0  0  0  0  0  0  0  0  0  0
    0.0000    0.0000    0.0000 O   0  0  0  0  0  0  0  0  0  0  0  0
    0.0000    0.0000    0.0000 C   0  0  0  0  0  0  0  0  0  0  0  0
    0.0000    0.0000    0.0000 C   0  0  0  0  0  0  0  0  0  0  0  0
  1  2  2  0
  2  3  1  0
  3  4  1  0
  4  5  1  0
  5  6  2  0
  6  7  1  0
  7  8  2  0
  8  9  1  0
  9 10  2  0
 10 11  1  0
 11 12  1  0
 12 13  1  0
 13 14  2  0
 10 15  1  0
 15 16  1  0
 16 17  1  0
 17 18  2  0
 18 19  1  0
 19 20  2  0
 20 21  1  0
 21 22  2  0
 15 23  1  0
 23 24  2  0
 23 25  1  0
 25 26  2  0
 26  5  1  0
 25  8  1  0
 22 17  1  0
M  END
>  <pIC50>  (437) 
6.0

>  <ChEMBL_ID>  (437) 
CHEMBL1092683

>  <document_journal>  (437) 
Bioorg. Med. Chem.

>  <bao_endpoint>  (437) 
BAO_0000190

>  <potential_duplicate>  (437) 
False

>  <uo_units>  (437) 
UO_0000065

>  <canonical_smiles>  (437) 
C=CCNc1ccc2N=C(SCC=C)N(Cc3ccccc3)C(=O)c2c1

>  <parent_molecule_chembl_id>  (437) 
CHEMBL1092683

>  <assay_type>  (437) 
B

>  <src_id>  (437) 
1

>  <ligand_efficiency>  (437) 
{u'le': u'0.32', u'bei': u'16.51', u'sei': u'8.57', u'lle': u'1.14'}

>  <standard_flag>  (437) 
True

>  <molecule_chembl_id>  (437) 
CHEMBL1092683

>  <target_organism>  (437) 
Homo sapiens

>  <standard_units>  (437) 
nM

>  <record_id>  (437) 
904470

>  <document_chembl_id>  (437) 
CHEMBL1156232

>  <bao_format>  (437) 
BAO_0000357

>  <data_validity_description>  (437) 
None

>  <activity_id>  (437) 
3237466

>  <standard_type>  (437) 
IC50

>  <target_chembl_id>  (437) 
CHEMBL202

>  <data_validity_comment>  (437) 
None

>  <published_value>  (437) 
1

>  <document_year>  (437) 
2010

>  <target_pref_name>  (437) 
Dihydrofolate reductase

>  <assay_chembl_id>  (437) 
CHEMBL1113554

>  <standard_relation>  (437) 
=

>  <assay_description>  (437) 
Inhibition of human DHFR after 2 mins

>  <published_relation>  (437) 
=

>  <standard_value>  (437) 
1000

>  <qudt_units>  (437) 
http://www.openphacts.org/units/Nanomolar

>  <target_tax_id>  (437) 
9606

>  <bao_label>  (437) 
single protein format

>  <published_units>  (437) 
uM

>  <pchembl_value>  (437) 
6

>  <published_type>  (437) 
IC50

>  <activity_comment>  (437) 
None

$$$$

     RDKit          

 27 29  0  0  0  0  0  0  0  0999 V2000
    0.0000    0.0000    0.0000 C   0  0  0  0  0  0  0  0  0  0  0  0
    0.0000    0.0000    0.0000 S   0  0  0  0  0  0  0  0  0  0  0  0
    0.0000    0.0000    0.0000 C   0  0  0  0  0  0  0  0  0  0  0  0
    0.0000    0.0000    0.0000 N   0  0  0  0  0  0  0  0  0  0  0  0
    0.0000    0.0000    0.0000 C   0  0  0  0  0  0  0  0  0  0  0  0
    0.0000    0.0000    0.0000 C   0  0  0  0  0  0  0  0  0  0  0  0
    0.0000    0.0000    0.0000 C   0  0  0  0  0  0  0  0  0  0  0  0
    0.0000    0.0000    0.0000 C   0  0  0  0  0  0  0  0  0  0  0  0
    0.0000    0.0000    0.0000 C   0  0  0  0  0  0  0  0  0  0  0  0
    0.0000    0.0000    0.0000 C   0  0  0  0  0  0  0  0  0  0  0  0
    0.0000    0.0000    0.0000 C   0  0  0  0  0  0  0  0  0  0  0  0
    0.0000    0.0000    0.0000 O   0  0  0  0  0  0  0  0  0  0  0  0
    0.0000    0.0000    0.0000 N   0  0  0  0  0  0  0  0  0  0  0  0
    0.0000    0.0000    0.0000 C   0  0  0  0  0  0  0  0  0  0  0  0
    0.0000    0.0000    0.0000 C   0  0  0  0  0  0  0  0  0  0  0  0
    0.0000    0.0000    0.0000 C   0  0  0  0  0  0  0  0  0  0  0  0
    0.0000    0.0000    0.0000 C   0  0  0  0  0  0  0  0  0  0  0  0
    0.0000    0.0000    0.0000 C   0  0  0  0  0  0  0  0  0  0  0  0
    0.0000    0.0000    0.0000 C   0  0  0  0  0  0  0  0  0  0  0  0
    0.0000    0.0000    0.0000 C   0  0  0  0  0  0  0  0  0  0  0  0
    0.0000    0.0000    0.0000 N   0  0  0  0  0  0  0  0  0  0  0  0
    0.0000    0.0000    0.0000 C   0  0  0  0  0  0  0  0  0  0  0  0
    0.0000    0.0000    0.0000 C   0  0  0  0  0  0  0  0  0  0  0  0
    0.0000    0.0000    0.0000 C   0  0  0  0  0  0  0  0  0  0  0  0
    0.0000    0.0000    0.0000 C   0  0  0  0  0  0  0  0  0  0  0  0
    0.0000    0.0000    0.0000 C   0  0  0  0  0  0  0  0  0  0  0  0
    0.0000    0.0000    0.0000 C   0  0  0  0  0  0  0  0  0  0  0  0
  1  2  1  0
  2  3  1  0
  3  4  2  0
  4  5  1  0
  5  6  2  0
  6  7  1  0
  7  8  2  0
  8  9  1  0
  9 10  2  0
 10 11  1  0
 11 12  2  0
 11 13  1  0
 13 14  1  0
 14 15  1  0
 15 16  2  0
 16 17  1  0
 17 18  2  0
 18 19  1  0
 19 20  2  0
  8 21  1  0
 21 22  1  0
 22 23  1  0
 23 24  2  0
 21 25  1  0
 25 26  1  0
 26 27  2  0
 13  3  1  0
 10  5  1  0
 20 15  1  0
M  END
>  <pIC50>  (438) 
6.0

>  <ChEMBL_ID>  (438) 
CHEMBL1092682

>  <document_journal>  (438) 
Bioorg. Med. Chem.

>  <bao_endpoint>  (438) 
BAO_0000190

>  <potential_duplicate>  (438) 
False

>  <uo_units>  (438) 
UO_0000065

>  <canonical_smiles>  (438) 
CSC1=Nc2ccc(cc2C(=O)N1Cc3ccccc3)N(CC=C)CC=C

>  <parent_molecule_chembl_id>  (438) 
CHEMBL1092682

>  <assay_type>  (438) 
B

>  <src_id>  (438) 
1

>  <ligand_efficiency>  (438) 
{u'le': u'0.3', u'bei': u'15.89', u'sei': u'9.8', u'lle': u'0.78'}

>  <standard_flag>  (438) 
True

>  <molecule_chembl_id>  (438) 
CHEMBL1092682

>  <target_organism>  (438) 
Homo sapiens

>  <standard_units>  (438) 
nM

>  <record_id>  (438) 
904469

>  <document_chembl_id>  (438) 
CHEMBL1156232

>  <bao_format>  (438) 
BAO_0000357

>  <data_validity_description>  (438) 
None

>  <activity_id>  (438) 
3237467

>  <standard_type>  (438) 
IC50

>  <target_chembl_id>  (438) 
CHEMBL202

>  <data_validity_comment>  (438) 
None

>  <published_value>  (438) 
1

>  <document_year>  (438) 
2010

>  <target_pref_name>  (438) 
Dihydrofolate reductase

>  <assay_chembl_id>  (438) 
CHEMBL1113554

>  <standard_relation>  (438) 
=

>  <assay_description>  (438) 
Inhibition of human DHFR after 2 mins

>  <published_relation>  (438) 
=

>  <standard_value>  (438) 
1000

>  <qudt_units>  (438) 
http://www.openphacts.org/units/Nanomolar

>  <target_tax_id>  (438) 
9606

>  <bao_label>  (438) 
single protein format

>  <published_units>  (438) 
uM

>  <pchembl_value>  (438) 
6

>  <published_type>  (438) 
IC50

>  <activity_comment>  (438) 
None

$$$$

     RDKit          

 24 26  0  0  0  0  0  0  0  0999 V2000
    0.0000    0.0000    0.0000 C   0  0  0  0  0  0  0  0  0  0  0  0
    0.0000    0.0000    0.0000 S   0  0  0  0  0  0  0  0  0  0  0  0
    0.0000    0.0000    0.0000 C   0  0  0  0  0  0  0  0  0  0  0  0
    0.0000    0.0000    0.0000 N   0  0  0  0  0  0  0  0  0  0  0  0
    0.0000    0.0000    0.0000 C   0  0  0  0  0  0  0  0  0  0  0  0
    0.0000    0.0000    0.0000 C   0  0  0  0  0  0  0  0  0  0  0  0
    0.0000    0.0000    0.0000 C   0  0  0  0  0  0  0  0  0  0  0  0
    0.0000    0.0000    0.0000 C   0  0  0  0  0  0  0  0  0  0  0  0
    0.0000    0.0000    0.0000 N   0  0  0  0  0  0  0  0  0  0  0  0
    0.0000    0.0000    0.0000 C   0  0  0  0  0  0  0  0  0  0  0  0
    0.0000    0.0000    0.0000 C   0  0  0  0  0  0  0  0  0  0  0  0
    0.0000    0.0000    0.0000 C   0  0  0  0  0  0  0  0  0  0  0  0
    0.0000    0.0000    0.0000 C   0  0  0  0  0  0  0  0  0  0  0  0
    0.0000    0.0000    0.0000 C   0  0  0  0  0  0  0  0  0  0  0  0
    0.0000    0.0000    0.0000 C   0  0  0  0  0  0  0  0  0  0  0  0
    0.0000    0.0000    0.0000 O   0  0  0  0  0  0  0  0  0  0  0  0
    0.0000    0.0000    0.0000 N   0  0  0  0  0  0  0  0  0  0  0  0
    0.0000    0.0000    0.0000 C   0  0  0  0  0  0  0  0  0  0  0  0
    0.0000    0.0000    0.0000 C   0  0  0  0  0  0  0  0  0  0  0  0
    0.0000    0.0000    0.0000 C   0  0  0  0  0  0  0  0  0  0  0  0
    0.0000    0.0000    0.0000 C   0  0  0  0  0  0  0  0  0  0  0  0
    0.0000    0.0000    0.0000 C   0  0  0  0  0  0  0  0  0  0  0  0
    0.0000    0.0000    0.0000 C   0  0  0  0  0  0  0  0  0  0  0  0
    0.0000    0.0000    0.0000 C   0  0  0  0  0  0  0  0  0  0  0  0
  1  2  1  0
  2  3  1  0
  3  4  2  0
  4  5  1  0
  5  6  2  0
  6  7  1  0
  7  8  2  0
  8  9  1  0
  9 10  1  0
 10 11  1  0
 11 12  2  0
  8 13  1  0
 13 14  2  0
 14 15  1  0
 15 16  2  0
 15 17  1  0
 17 18  1  0
 18 19  1  0
 19 20  2  0
 20 21  1  0
 21 22  2  0
 22 23  1  0
 23 24  2  0
 17  3  1  0
 14  5  1  0
 24 19  1  0
M  END
>  <pIC50>  (439) 
6.1

>  <ChEMBL_ID>  (439) 
CHEMBL1089230

>  <document_journal>  (439) 
Bioorg. Med. Chem.

>  <bao_endpoint>  (439) 
BAO_0000190

>  <potential_duplicate>  (439) 
False

>  <uo_units>  (439) 
UO_0000065

>  <canonical_smiles>  (439) 
CSC1=Nc2ccc(NCC=C)cc2C(=O)N1Cc3ccccc3

>  <parent_molecule_chembl_id>  (439) 
CHEMBL1089230

>  <assay_type>  (439) 
B

>  <src_id>  (439) 
1

>  <ligand_efficiency>  (439) 
{u'le': u'0.35', u'bei': u'18.07', u'sei': u'8.71', u'lle': u'1.85'}

>  <standard_flag>  (439) 
True

>  <molecule_chembl_id>  (439) 
CHEMBL1089230

>  <target_organism>  (439) 
Homo sapiens

>  <standard_units>  (439) 
nM

>  <record_id>  (439) 
904468

>  <document_chembl_id>  (439) 
CHEMBL1156232

>  <bao_format>  (439) 
BAO_0000357

>  <data_validity_description>  (439) 
None

>  <activity_id>  (439) 
3237468

>  <standard_type>  (439) 
IC50

>  <target_chembl_id>  (439) 
CHEMBL202

>  <data_validity_comment>  (439) 
None

>  <published_value>  (439) 
0.8

>  <document_year>  (439) 
2010

>  <target_pref_name>  (439) 
Dihydrofolate reductase

>  <assay_chembl_id>  (439) 
CHEMBL1113554

>  <standard_relation>  (439) 
=

>  <assay_description>  (439) 
Inhibition of human DHFR after 2 mins

>  <published_relation>  (439) 
=

>  <standard_value>  (439) 
800

>  <qudt_units>  (439) 
http://www.openphacts.org/units/Nanomolar

>  <target_tax_id>  (439) 
9606

>  <bao_label>  (439) 
single protein format

>  <published_units>  (439) 
uM

>  <pchembl_value>  (439) 
6.1

>  <published_type>  (439) 
IC50

>  <activity_comment>  (439) 
None

$$$$

     RDKit          

 39 43  0  0  0  0  0  0  0  0999 V2000
    0.0000    0.0000    0.0000 O   0  0  0  0  0  0  0  0  0  0  0  0
    0.0000    0.0000    0.0000 C   0  0  0  0  0  0  0  0  0  0  0  0
    0.0000    0.0000    0.0000 N   0  0  0  0  0  0  0  0  0  0  0  0
    0.0000    0.0000    0.0000 C   0  0  0  0  0  0  0  0  0  0  0  0
    0.0000    0.0000    0.0000 C   0  0  0  0  0  0  0  0  0  0  0  0
    0.0000    0.0000    0.0000 C   0  0  0  0  0  0  0  0  0  0  0  0
    0.0000    0.0000    0.0000 C   0  0  0  0  0  0  0  0  0  0  0  0
    0.0000    0.0000    0.0000 N   0  0  0  0  0  0  0  0  0  0  0  0
    0.0000    0.0000    0.0000 C   0  0  0  0  0  0  0  0  0  0  0  0
    0.0000    0.0000    0.0000 S   0  0  0  0  0  0  0  0  0  0  0  0
    0.0000    0.0000    0.0000 C   0  0  0  0  0  0  0  0  0  0  0  0
    0.0000    0.0000    0.0000 C   0  0  0  0  0  0  0  0  0  0  0  0
    0.0000    0.0000    0.0000 C   0  0  0  0  0  0  0  0  0  0  0  0
    0.0000    0.0000    0.0000 C   0  0  0  0  0  0  0  0  0  0  0  0
    0.0000    0.0000    0.0000 C   0  0  0  0  0  0  0  0  0  0  0  0
    0.0000    0.0000    0.0000 C   0  0  0  0  0  0  0  0  0  0  0  0
    0.0000    0.0000    0.0000 C   0  0  0  0  0  0  0  0  0  0  0  0
    0.0000    0.0000    0.0000 C   0  0  0  0  0  0  0  0  0  0  0  0
    0.0000    0.0000    0.0000 C   0  0  0  0  0  0  0  0  0  0  0  0
    0.0000    0.0000    0.0000 N   0  0  0  0  0  0  0  0  0  0  0  0
    0.0000    0.0000    0.0000 C   0  0  0  0  0  0  0  0  0  0  0  0
    0.0000    0.0000    0.0000 C   0  0  0  0  0  0  0  0  0  0  0  0
    0.0000    0.0000    0.0000 C   0  0  0  0  0  0  0  0  0  0  0  0
    0.0000    0.0000    0.0000 C   0  0  0  0  0  0  0  0  0  0  0  0
    0.0000    0.0000    0.0000 C   0  0  0  0  0  0  0  0  0  0  0  0
    0.0000    0.0000    0.0000 C   0  0  0  0  0  0  0  0  0  0  0  0
    0.0000    0.0000    0.0000 C   0  0  0  0  0  0  0  0  0  0  0  0
    0.0000    0.0000    0.0000 C   0  0  0  0  0  0  0  0  0  0  0  0
    0.0000    0.0000    0.0000 O   0  0  0  0  0  0  0  0  0  0  0  0
    0.0000    0.0000    0.0000 C   0  0  0  0  0  0  0  0  0  0  0  0
    0.0000    0.0000    0.0000 C   0  0  0  0  0  0  0  0  0  0  0  0
    0.0000    0.0000    0.0000 C   0  0  0  0  0  0  0  0  0  0  0  0
    0.0000    0.0000    0.0000 C   0  0  0  0  0  0  0  0  0  0  0  0
    0.0000    0.0000    0.0000 C   0  0  0  0  0  0  0  0  0  0  0  0
    0.0000    0.0000    0.0000 C   0  0  0  0  0  0  0  0  0  0  0  0
    0.0000    0.0000    0.0000 C   0  0  0  0  0  0  0  0  0  0  0  0
    0.0000    0.0000    0.0000 C   0  0  0  0  0  0  0  0  0  0  0  0
    0.0000    0.0000    0.0000 C   0  0  0  0  0  0  0  0  0  0  0  0
    0.0000    0.0000    0.0000 C   0  0  0  0  0  0  0  0  0  0  0  0
  1  2  2  0
  2  3  1  0
  3  4  1  0
  4  5  2  0
  5  6  1  0
  6  7  2  0
  7  8  1  0
  8  9  2  0
  9 10  1  0
 10 11  1  0
 11 12  1  0
 12 13  2  0
 13 14  1  0
 14 15  2  0
 15 16  1  0
 16 17  2  0
 17 18  1  0
 18 19  2  0
  9 20  1  0
 20 21  1  0
 21 22  1  0
 22 23  2  0
 23 24  1  0
 24 25  2  0
 25 26  1  0
 26 27  2  0
 20 28  1  0
 28 29  2  0
 28 30  1  0
 30 31  2  0
  2 32  1  0
 32 33  2  0
 33 34  1  0
 34 35  2  0
 35 36  1  0
 36 37  2  0
 37 38  1  0
 38 39  2  0
 31  4  1  0
 30  7  1  0
 19 14  1  0
 27 22  1  0
 39 34  1  0
M  END
>  <pIC50>  (440) 
6.3

>  <ChEMBL_ID>  (440) 
CHEMBL1089229

>  <document_journal>  (440) 
Bioorg. Med. Chem.

>  <bao_endpoint>  (440) 
BAO_0000190

>  <potential_duplicate>  (440) 
False

>  <uo_units>  (440) 
UO_0000065

>  <canonical_smiles>  (440) 
O=C(Nc1ccc2N=C(SC\C=C\c3ccccc3)N(Cc4ccccc4)C(=O)c2c1)\C=C\c5ccccc5

>  <parent_molecule_chembl_id>  (440) 
CHEMBL1089229

>  <assay_type>  (440) 
B

>  <src_id>  (440) 
1

>  <ligand_efficiency>  (440) 
{u'le': u'0.22', u'bei': u'11.9', u'sei': u'7.24', u'lle': u'-0.82'}

>  <standard_flag>  (440) 
True

>  <molecule_chembl_id>  (440) 
CHEMBL1089229

>  <target_organism>  (440) 
Homo sapiens

>  <standard_units>  (440) 
nM

>  <record_id>  (440) 
904467

>  <document_chembl_id>  (440) 
CHEMBL1156232

>  <bao_format>  (440) 
BAO_0000357

>  <data_validity_description>  (440) 
None

>  <activity_id>  (440) 
3237469

>  <standard_type>  (440) 
IC50

>  <target_chembl_id>  (440) 
CHEMBL202

>  <data_validity_comment>  (440) 
None

>  <published_value>  (440) 
0.5

>  <document_year>  (440) 
2010

>  <target_pref_name>  (440) 
Dihydrofolate reductase

>  <assay_chembl_id>  (440) 
CHEMBL1113554

>  <standard_relation>  (440) 
=

>  <assay_description>  (440) 
Inhibition of human DHFR after 2 mins

>  <published_relation>  (440) 
=

>  <standard_value>  (440) 
500

>  <qudt_units>  (440) 
http://www.openphacts.org/units/Nanomolar

>  <target_tax_id>  (440) 
9606

>  <bao_label>  (440) 
single protein format

>  <published_units>  (440) 
uM

>  <pchembl_value>  (440) 
6.3

>  <published_type>  (440) 
IC50

>  <activity_comment>  (440) 
None

$$$$

     RDKit          

 33 36  0  0  0  0  0  0  0  0999 V2000
    0.0000    0.0000    0.0000 C   0  0  0  0  0  0  0  0  0  0  0  0
    0.0000    0.0000    0.0000 C   0  0  0  0  0  0  0  0  0  0  0  0
    0.0000    0.0000    0.0000 C   0  0  0  0  0  0  0  0  0  0  0  0
    0.0000    0.0000    0.0000 S   0  0  0  0  0  0  0  0  0  0  0  0
    0.0000    0.0000    0.0000 C   0  0  0  0  0  0  0  0  0  0  0  0
    0.0000    0.0000    0.0000 N   0  0  0  0  0  0  0  0  0  0  0  0
    0.0000    0.0000    0.0000 C   0  0  0  0  0  0  0  0  0  0  0  0
    0.0000    0.0000    0.0000 C   0  0  0  0  0  0  0  0  0  0  0  0
    0.0000    0.0000    0.0000 C   0  0  0  0  0  0  0  0  0  0  0  0
    0.0000    0.0000    0.0000 C   0  0  0  0  0  0  0  0  0  0  0  0
    0.0000    0.0000    0.0000 N   0  0  0  0  0  0  0  0  0  0  0  0
    0.0000    0.0000    0.0000 C   0  0  0  0  0  0  0  0  0  0  0  0
    0.0000    0.0000    0.0000 O   0  0  0  0  0  0  0  0  0  0  0  0
    0.0000    0.0000    0.0000 C   0  0  0  0  0  0  0  0  0  0  0  0
    0.0000    0.0000    0.0000 C   0  0  0  0  0  0  0  0  0  0  0  0
    0.0000    0.0000    0.0000 C   0  0  0  0  0  0  0  0  0  0  0  0
    0.0000    0.0000    0.0000 C   0  0  0  0  0  0  0  0  0  0  0  0
    0.0000    0.0000    0.0000 C   0  0  0  0  0  0  0  0  0  0  0  0
    0.0000    0.0000    0.0000 C   0  0  0  0  0  0  0  0  0  0  0  0
    0.0000    0.0000    0.0000 C   0  0  0  0  0  0  0  0  0  0  0  0
    0.0000    0.0000    0.0000 C   0  0  0  0  0  0  0  0  0  0  0  0
    0.0000    0.0000    0.0000 C   0  0  0  0  0  0  0  0  0  0  0  0
    0.0000    0.0000    0.0000 C   0  0  0  0  0  0  0  0  0  0  0  0
    0.0000    0.0000    0.0000 C   0  0  0  0  0  0  0  0  0  0  0  0
    0.0000    0.0000    0.0000 O   0  0  0  0  0  0  0  0  0  0  0  0
    0.0000    0.0000    0.0000 N   0  0  0  0  0  0  0  0  0  0  0  0
    0.0000    0.0000    0.0000 C   0  0  0  0  0  0  0  0  0  0  0  0
    0.0000    0.0000    0.0000 C   0  0  0  0  0  0  0  0  0  0  0  0
    0.0000    0.0000    0.0000 C   0  0  0  0  0  0  0  0  0  0  0  0
    0.0000    0.0000    0.0000 C   0  0  0  0  0  0  0  0  0  0  0  0
    0.0000    0.0000    0.0000 C   0  0  0  0  0  0  0  0  0  0  0  0
    0.0000    0.0000    0.0000 C   0  0  0  0  0  0  0  0  0  0  0  0
    0.0000    0.0000    0.0000 C   0  0  0  0  0  0  0  0  0  0  0  0
  1  2  2  0
  2  3  1  0
  3  4  1  0
  4  5  1  0
  5  6  2  0
  6  7  1  0
  7  8  2  0
  8  9  1  0
  9 10  2  0
 10 11  1  0
 11 12  1  0
 12 13  2  0
 12 14  1  0
 14 15  2  0
 15 16  1  0
 16 17  2  0
 17 18  1  0
 18 19  2  0
 19 20  1  0
 20 21  2  0
 10 22  1  0
 22 23  2  0
 23 24  1  0
 24 25  2  0
 24 26  1  0
 26 27  1  0
 27 28  1  0
 28 29  2  0
 29 30  1  0
 30 31  2  0
 31 32  1  0
 32 33  2  0
 26  5  1  0
 23  7  1  0
 21 16  1  0
 33 28  1  0
M  END
>  <pIC50>  (441) 
6.3

>  <ChEMBL_ID>  (441) 
CHEMBL1093519

>  <document_journal>  (441) 
Bioorg. Med. Chem.

>  <bao_endpoint>  (441) 
BAO_0000190

>  <potential_duplicate>  (441) 
False

>  <uo_units>  (441) 
UO_0000065

>  <canonical_smiles>  (441) 
C=CCSC1=Nc2ccc(NC(=O)\C=C\c3ccccc3)cc2C(=O)N1Cc4ccccc4

>  <parent_molecule_chembl_id>  (441) 
CHEMBL1093519

>  <assay_type>  (441) 
B

>  <src_id>  (441) 
1

>  <ligand_efficiency>  (441) 
{u'le': u'0.26', u'bei': u'13.89', u'sei': u'7.24', u'lle': u'0.61'}

>  <standard_flag>  (441) 
True

>  <molecule_chembl_id>  (441) 
CHEMBL1093519

>  <target_organism>  (441) 
Homo sapiens

>  <standard_units>  (441) 
nM

>  <record_id>  (441) 
904381

>  <document_chembl_id>  (441) 
CHEMBL1156232

>  <bao_format>  (441) 
BAO_0000357

>  <data_validity_description>  (441) 
None

>  <activity_id>  (441) 
3237470

>  <standard_type>  (441) 
IC50

>  <target_chembl_id>  (441) 
CHEMBL202

>  <data_validity_comment>  (441) 
None

>  <published_value>  (441) 
0.5

>  <document_year>  (441) 
2010

>  <target_pref_name>  (441) 
Dihydrofolate reductase

>  <assay_chembl_id>  (441) 
CHEMBL1113554

>  <standard_relation>  (441) 
=

>  <assay_description>  (441) 
Inhibition of human DHFR after 2 mins

>  <published_relation>  (441) 
=

>  <standard_value>  (441) 
500

>  <qudt_units>  (441) 
http://www.openphacts.org/units/Nanomolar

>  <target_tax_id>  (441) 
9606

>  <bao_label>  (441) 
single protein format

>  <published_units>  (441) 
uM

>  <pchembl_value>  (441) 
6.3

>  <published_type>  (441) 
IC50

>  <activity_comment>  (441) 
None

$$$$

     RDKit          

 31 34  0  0  0  0  0  0  0  0999 V2000
    0.0000    0.0000    0.0000 C   0  0  0  0  0  0  0  0  0  0  0  0
    0.0000    0.0000    0.0000 S   0  0  0  0  0  0  0  0  0  0  0  0
    0.0000    0.0000    0.0000 C   0  0  0  0  0  0  0  0  0  0  0  0
    0.0000    0.0000    0.0000 N   0  0  0  0  0  0  0  0  0  0  0  0
    0.0000    0.0000    0.0000 C   0  0  0  0  0  0  0  0  0  0  0  0
    0.0000    0.0000    0.0000 C   0  0  0  0  0  0  0  0  0  0  0  0
    0.0000    0.0000    0.0000 C   0  0  0  0  0  0  0  0  0  0  0  0
    0.0000    0.0000    0.0000 C   0  0  0  0  0  0  0  0  0  0  0  0
    0.0000    0.0000    0.0000 N   0  0  0  0  0  0  0  0  0  0  0  0
    0.0000    0.0000    0.0000 C   0  0  0  0  0  0  0  0  0  0  0  0
    0.0000    0.0000    0.0000 O   0  0  0  0  0  0  0  0  0  0  0  0
    0.0000    0.0000    0.0000 C   0  0  0  0  0  0  0  0  0  0  0  0
    0.0000    0.0000    0.0000 C   0  0  0  0  0  0  0  0  0  0  0  0
    0.0000    0.0000    0.0000 C   0  0  0  0  0  0  0  0  0  0  0  0
    0.0000    0.0000    0.0000 C   0  0  0  0  0  0  0  0  0  0  0  0
    0.0000    0.0000    0.0000 C   0  0  0  0  0  0  0  0  0  0  0  0
    0.0000    0.0000    0.0000 C   0  0  0  0  0  0  0  0  0  0  0  0
    0.0000    0.0000    0.0000 C   0  0  0  0  0  0  0  0  0  0  0  0
    0.0000    0.0000    0.0000 C   0  0  0  0  0  0  0  0  0  0  0  0
    0.0000    0.0000    0.0000 C   0  0  0  0  0  0  0  0  0  0  0  0
    0.0000    0.0000    0.0000 C   0  0  0  0  0  0  0  0  0  0  0  0
    0.0000    0.0000    0.0000 C   0  0  0  0  0  0  0  0  0  0  0  0
    0.0000    0.0000    0.0000 O   0  0  0  0  0  0  0  0  0  0  0  0
    0.0000    0.0000    0.0000 N   0  0  0  0  0  0  0  0  0  0  0  0
    0.0000    0.0000    0.0000 C   0  0  0  0  0  0  0  0  0  0  0  0
    0.0000    0.0000    0.0000 C   0  0  0  0  0  0  0  0  0  0  0  0
    0.0000    0.0000    0.0000 C   0  0  0  0  0  0  0  0  0  0  0  0
    0.0000    0.0000    0.0000 C   0  0  0  0  0  0  0  0  0  0  0  0
    0.0000    0.0000    0.0000 C   0  0  0  0  0  0  0  0  0  0  0  0
    0.0000    0.0000    0.0000 C   0  0  0  0  0  0  0  0  0  0  0  0
    0.0000    0.0000    0.0000 C   0  0  0  0  0  0  0  0  0  0  0  0
  1  2  1  0
  2  3  1  0
  3  4  2  0
  4  5  1  0
  5  6  2  0
  6  7  1  0
  7  8  2  0
  8  9  1  0
  9 10  1  0
 10 11  2  0
 10 12  1  0
 12 13  2  0
 13 14  1  0
 14 15  2  0
 15 16  1  0
 16 17  2  0
 17 18  1  0
 18 19  2  0
  8 20  1  0
 20 21  2  0
 21 22  1  0
 22 23  2  0
 22 24  1  0
 24 25  1  0
 25 26  1  0
 26 27  2  0
 27 28  1  0
 28 29  2  0
 29 30  1  0
 30 31  2  0
 24  3  1  0
 21  5  1  0
 19 14  1  0
 31 26  1  0
M  END
>  <pIC50>  (442) 
6.0

>  <ChEMBL_ID>  (442) 
CHEMBL1093244

>  <document_journal>  (442) 
Bioorg. Med. Chem.

>  <bao_endpoint>  (442) 
BAO_0000190

>  <potential_duplicate>  (442) 
False

>  <uo_units>  (442) 
UO_0000065

>  <canonical_smiles>  (442) 
CSC1=Nc2ccc(NC(=O)\C=C\c3ccccc3)cc2C(=O)N1Cc4ccccc4

>  <parent_molecule_chembl_id>  (442) 
CHEMBL1093244

>  <assay_type>  (442) 
B

>  <src_id>  (442) 
1

>  <ligand_efficiency>  (442) 
{u'le': u'0.26', u'bei': u'14.03', u'sei': u'6.89', u'lle': u'0.93'}

>  <standard_flag>  (442) 
True

>  <molecule_chembl_id>  (442) 
CHEMBL1093244

>  <target_organism>  (442) 
Homo sapiens

>  <standard_units>  (442) 
nM

>  <record_id>  (442) 
904380

>  <document_chembl_id>  (442) 
CHEMBL1156232

>  <bao_format>  (442) 
BAO_0000357

>  <data_validity_description>  (442) 
None

>  <activity_id>  (442) 
3237471

>  <standard_type>  (442) 
IC50

>  <target_chembl_id>  (442) 
CHEMBL202

>  <data_validity_comment>  (442) 
None

>  <published_value>  (442) 
1

>  <document_year>  (442) 
2010

>  <target_pref_name>  (442) 
Dihydrofolate reductase

>  <assay_chembl_id>  (442) 
CHEMBL1113554

>  <standard_relation>  (442) 
=

>  <assay_description>  (442) 
Inhibition of human DHFR after 2 mins

>  <published_relation>  (442) 
=

>  <standard_value>  (442) 
1000

>  <qudt_units>  (442) 
http://www.openphacts.org/units/Nanomolar

>  <target_tax_id>  (442) 
9606

>  <bao_label>  (442) 
single protein format

>  <published_units>  (442) 
uM

>  <pchembl_value>  (442) 
6

>  <published_type>  (442) 
IC50

>  <activity_comment>  (442) 
None

$$$$

     RDKit          

 33 36  0  0  0  0  0  0  0  0999 V2000
    0.0000    0.0000    0.0000 C   0  0  0  0  0  0  0  0  0  0  0  0
    0.0000    0.0000    0.0000 C   0  0  0  0  0  0  0  0  0  0  0  0
    0.0000    0.0000    0.0000 C   0  0  0  0  0  0  0  0  0  0  0  0
    0.0000    0.0000    0.0000 O   0  0  0  0  0  0  0  0  0  0  0  0
    0.0000    0.0000    0.0000 N   0  0  0  0  0  0  0  0  0  0  0  0
    0.0000    0.0000    0.0000 C   0  0  0  0  0  0  0  0  0  0  0  0
    0.0000    0.0000    0.0000 C   0  0  0  0  0  0  0  0  0  0  0  0
    0.0000    0.0000    0.0000 C   0  0  0  0  0  0  0  0  0  0  0  0
    0.0000    0.0000    0.0000 C   0  0  0  0  0  0  0  0  0  0  0  0
    0.0000    0.0000    0.0000 N   0  0  0  0  0  0  0  0  0  0  0  0
    0.0000    0.0000    0.0000 C   0  0  0  0  0  0  0  0  0  0  0  0
    0.0000    0.0000    0.0000 S   0  0  0  0  0  0  0  0  0  0  0  0
    0.0000    0.0000    0.0000 C   0  0  0  0  0  0  0  0  0  0  0  0
    0.0000    0.0000    0.0000 C   0  0  0  0  0  0  0  0  0  0  0  0
    0.0000    0.0000    0.0000 C   0  0  0  0  0  0  0  0  0  0  0  0
    0.0000    0.0000    0.0000 C   0  0  0  0  0  0  0  0  0  0  0  0
    0.0000    0.0000    0.0000 C   0  0  0  0  0  0  0  0  0  0  0  0
    0.0000    0.0000    0.0000 C   0  0  0  0  0  0  0  0  0  0  0  0
    0.0000    0.0000    0.0000 C   0  0  0  0  0  0  0  0  0  0  0  0
    0.0000    0.0000    0.0000 C   0  0  0  0  0  0  0  0  0  0  0  0
    0.0000    0.0000    0.0000 C   0  0  0  0  0  0  0  0  0  0  0  0
    0.0000    0.0000    0.0000 N   0  0  0  0  0  0  0  0  0  0  0  0
    0.0000    0.0000    0.0000 C   0  0  0  0  0  0  0  0  0  0  0  0
    0.0000    0.0000    0.0000 C   0  0  0  0  0  0  0  0  0  0  0  0
    0.0000    0.0000    0.0000 C   0  0  0  0  0  0  0  0  0  0  0  0
    0.0000    0.0000    0.0000 C   0  0  0  0  0  0  0  0  0  0  0  0
    0.0000    0.0000    0.0000 C   0  0  0  0  0  0  0  0  0  0  0  0
    0.0000    0.0000    0.0000 C   0  0  0  0  0  0  0  0  0  0  0  0
    0.0000    0.0000    0.0000 C   0  0  0  0  0  0  0  0  0  0  0  0
    0.0000    0.0000    0.0000 C   0  0  0  0  0  0  0  0  0  0  0  0
    0.0000    0.0000    0.0000 O   0  0  0  0  0  0  0  0  0  0  0  0
    0.0000    0.0000    0.0000 C   0  0  0  0  0  0  0  0  0  0  0  0
    0.0000    0.0000    0.0000 C   0  0  0  0  0  0  0  0  0  0  0  0
  1  2  2  0
  2  3  1  0
  3  4  2  0
  3  5  1  0
  5  6  1  0
  6  7  2  0
  7  8  1  0
  8  9  2  0
  9 10  1  0
 10 11  2  0
 11 12  1  0
 12 13  1  0
 13 14  1  0
 14 15  2  0
 15 16  1  0
 16 17  2  0
 17 18  1  0
 18 19  2  0
 19 20  1  0
 20 21  2  0
 11 22  1  0
 22 23  1  0
 23 24  1  0
 24 25  2  0
 25 26  1  0
 26 27  2  0
 27 28  1  0
 28 29  2  0
 22 30  1  0
 30 31  2  0
 30 32  1  0
 32 33  2  0
 33  6  1  0
 32  9  1  0
 21 16  1  0
 29 24  1  0
M  END
>  <pIC50>  (443) 
5.7

>  <ChEMBL_ID>  (443) 
CHEMBL1093243

>  <document_journal>  (443) 
Bioorg. Med. Chem.

>  <bao_endpoint>  (443) 
BAO_0000190

>  <potential_duplicate>  (443) 
False

>  <uo_units>  (443) 
UO_0000065

>  <canonical_smiles>  (443) 
C=CC(=O)Nc1ccc2N=C(SC\C=C\c3ccccc3)N(Cc4ccccc4)C(=O)c2c1

>  <parent_molecule_chembl_id>  (443) 
CHEMBL1093243

>  <assay_type>  (443) 
B

>  <src_id>  (443) 
1

>  <ligand_efficiency>  (443) 
{u'le': u'0.24', u'bei': u'12.56', u'sei': u'6.55', u'lle': u'0.01'}

>  <standard_flag>  (443) 
True

>  <molecule_chembl_id>  (443) 
CHEMBL1093243

>  <target_organism>  (443) 
Homo sapiens

>  <standard_units>  (443) 
nM

>  <record_id>  (443) 
904379

>  <document_chembl_id>  (443) 
CHEMBL1156232

>  <bao_format>  (443) 
BAO_0000357

>  <data_validity_description>  (443) 
None

>  <activity_id>  (443) 
3237472

>  <standard_type>  (443) 
IC50

>  <target_chembl_id>  (443) 
CHEMBL202

>  <data_validity_comment>  (443) 
None

>  <published_value>  (443) 
2

>  <document_year>  (443) 
2010

>  <target_pref_name>  (443) 
Dihydrofolate reductase

>  <assay_chembl_id>  (443) 
CHEMBL1113554

>  <standard_relation>  (443) 
=

>  <assay_description>  (443) 
Inhibition of human DHFR after 2 mins

>  <published_relation>  (443) 
=

>  <standard_value>  (443) 
2000

>  <qudt_units>  (443) 
http://www.openphacts.org/units/Nanomolar

>  <target_tax_id>  (443) 
9606

>  <bao_label>  (443) 
single protein format

>  <published_units>  (443) 
uM

>  <pchembl_value>  (443) 
5.7

>  <published_type>  (443) 
IC50

>  <activity_comment>  (443) 
None

$$$$

     RDKit          

 30 33  0  0  0  0  0  0  0  0999 V2000
    0.0000    0.0000    0.0000 C   0  0  0  0  0  0  0  0  0  0  0  0
    0.0000    0.0000    0.0000 C   0  0  0  0  0  0  0  0  0  0  0  0
    0.0000    0.0000    0.0000 C   0  0  0  0  0  0  0  0  0  0  0  0
    0.0000    0.0000    0.0000 C   0  0  0  0  0  0  0  0  0  0  0  0
    0.0000    0.0000    0.0000 C   0  0  0  0  0  0  0  0  0  0  0  0
    0.0000    0.0000    0.0000 N   0  0  0  0  0  0  0  0  0  0  0  0
    0.0000    0.0000    0.0000 C   0  0  0  0  0  0  0  0  0  0  0  0
    0.0000    0.0000    0.0000 O   0  0  0  0  0  0  0  0  0  0  0  0
    0.0000    0.0000    0.0000 C   0  0  0  0  0  0  0  0  0  0  0  0
    0.0000    0.0000    0.0000 C   0  0  0  0  0  0  0  0  0  0  0  0
    0.0000    0.0000    0.0000 C   0  0  0  0  0  0  0  0  0  0  0  0
    0.0000    0.0000    0.0000 C   0  0  0  0  0  0  0  0  0  0  0  0
    0.0000    0.0000    0.0000 C   0  0  0  0  0  0  0  0  0  0  0  0
    0.0000    0.0000    0.0000 C   0  0  0  0  0  0  0  0  0  0  0  0
    0.0000    0.0000    0.0000 C   0  0  0  0  0  0  0  0  0  0  0  0
    0.0000    0.0000    0.0000 C   0  0  0  0  0  0  0  0  0  0  0  0
    0.0000    0.0000    0.0000 C   0  0  0  0  0  0  0  0  0  0  0  0
    0.0000    0.0000    0.0000 S   0  0  0  0  0  0  0  0  0  0  0  0
    0.0000    0.0000    0.0000 N   0  0  0  0  0  0  0  0  0  0  0  0
    0.0000    0.0000    0.0000 C   0  0  0  0  0  0  0  0  0  0  0  0
    0.0000    0.0000    0.0000 C   0  0  0  0  0  0  0  0  0  0  0  0
    0.0000    0.0000    0.0000 C   0  0  0  0  0  0  0  0  0  0  0  0
    0.0000    0.0000    0.0000 C   0  0  0  0  0  0  0  0  0  0  0  0
    0.0000    0.0000    0.0000 C   0  0  0  0  0  0  0  0  0  0  0  0
    0.0000    0.0000    0.0000 C   0  0  0  0  0  0  0  0  0  0  0  0
    0.0000    0.0000    0.0000 C   0  0  0  0  0  0  0  0  0  0  0  0
    0.0000    0.0000    0.0000 C   0  0  0  0  0  0  0  0  0  0  0  0
    0.0000    0.0000    0.0000 O   0  0  0  0  0  0  0  0  0  0  0  0
    0.0000    0.0000    0.0000 C   0  0  0  0  0  0  0  0  0  0  0  0
    0.0000    0.0000    0.0000 C   0  0  0  0  0  0  0  0  0  0  0  0
  1  2  1  0
  2  3  2  0
  3  4  1  0
  4  5  2  0
  5  6  1  0
  6  7  1  0
  7  8  1  0
  7  9  1  0
  9 10  2  0
 10 11  1  0
 11 12  2  0
 12 13  1  0
 13 14  2  0
 14 15  1  0
 15 16  2  0
  6 17  1  0
 17 18  2  0
 17 19  1  0
 19 20  1  0
 20 21  1  0
 21 22  2  0
 22 23  1  0
 23 24  2  0
 24 25  1  0
 25 26  2  0
 19 27  1  0
 27 28  2  0
 27 29  1  0
 29 30  2  0
 30  2  1  0
 29  5  1  0
 16 11  1  0
 26 21  1  0
M  END
>  <pIC50>  (444) 
5.52

>  <ChEMBL_ID>  (444) 
CHEMBL1093475

>  <document_journal>  (444) 
Bioorg. Med. Chem.

>  <bao_endpoint>  (444) 
BAO_0000190

>  <potential_duplicate>  (444) 
False

>  <uo_units>  (444) 
UO_0000065

>  <canonical_smiles>  (444) 
Cc1ccc2N(C(O)\C=C\c3ccccc3)C(=S)N(Cc4ccccc4)C(=O)c2c1

>  <parent_molecule_chembl_id>  (444) 
CHEMBL1093475

>  <assay_type>  (444) 
B

>  <src_id>  (444) 
1

>  <ligand_efficiency>  (444) 
{u'le': u'0.25', u'bei': u'13.32', u'sei': u'7.28', u'lle': u'-0.76'}

>  <standard_flag>  (444) 
True

>  <molecule_chembl_id>  (444) 
CHEMBL1093475

>  <target_organism>  (444) 
Homo sapiens

>  <standard_units>  (444) 
nM

>  <record_id>  (444) 
905357

>  <document_chembl_id>  (444) 
CHEMBL1156232

>  <bao_format>  (444) 
BAO_0000357

>  <data_validity_description>  (444) 
None

>  <activity_id>  (444) 
3237476

>  <standard_type>  (444) 
IC50

>  <target_chembl_id>  (444) 
CHEMBL202

>  <data_validity_comment>  (444) 
None

>  <published_value>  (444) 
3

>  <document_year>  (444) 
2010

>  <target_pref_name>  (444) 
Dihydrofolate reductase

>  <assay_chembl_id>  (444) 
CHEMBL1113554

>  <standard_relation>  (444) 
=

>  <assay_description>  (444) 
Inhibition of human DHFR after 2 mins

>  <published_relation>  (444) 
=

>  <standard_value>  (444) 
3000

>  <qudt_units>  (444) 
http://www.openphacts.org/units/Nanomolar

>  <target_tax_id>  (444) 
9606

>  <bao_label>  (444) 
single protein format

>  <published_units>  (444) 
uM

>  <pchembl_value>  (444) 
5.52

>  <published_type>  (444) 
IC50

>  <activity_comment>  (444) 
None

$$$$

     RDKit          

 14 14  0  0  0  0  0  0  0  0999 V2000
    0.0000    0.0000    0.0000 C   0  0  0  0  0  0  0  0  0  0  0  0
    0.0000    0.0000    0.0000 C   0  0  0  0  0  0  0  0  0  0  0  0
    0.0000    0.0000    0.0000 O   0  0  0  0  0  0  0  0  0  0  0  0
    0.0000    0.0000    0.0000 N   0  0  0  0  0  0  0  0  0  0  0  0
    0.0000    0.0000    0.0000 S   0  0  0  0  0  0  0  0  0  0  0  0
    0.0000    0.0000    0.0000 O   0  0  0  0  0  0  0  0  0  0  0  0
    0.0000    0.0000    0.0000 O   0  0  0  0  0  0  0  0  0  0  0  0
    0.0000    0.0000    0.0000 C   0  0  0  0  0  0  0  0  0  0  0  0
    0.0000    0.0000    0.0000 C   0  0  0  0  0  0  0  0  0  0  0  0
    0.0000    0.0000    0.0000 C   0  0  0  0  0  0  0  0  0  0  0  0
    0.0000    0.0000    0.0000 C   0  0  0  0  0  0  0  0  0  0  0  0
    0.0000    0.0000    0.0000 N   0  0  0  0  0  0  0  0  0  0  0  0
    0.0000    0.0000    0.0000 C   0  0  0  0  0  0  0  0  0  0  0  0
    0.0000    0.0000    0.0000 C   0  0  0  0  0  0  0  0  0  0  0  0
  1  2  1  0
  2  3  2  0
  2  4  1  0
  4  5  1  0
  5  6  2  0
  5  7  2  0
  5  8  1  0
  8  9  2  0
  9 10  1  0
 10 11  2  0
 11 12  1  0
 11 13  1  0
 13 14  2  0
 14  8  1  0
M  END
>  <pIC50>  (445) 
4.75

>  <ChEMBL_ID>  (445) 
CHEMBL455

>  <document_journal>  (445) 
Bioorg. Med. Chem.

>  <bao_endpoint>  (445) 
BAO_0000190

>  <potential_duplicate>  (445) 
False

>  <uo_units>  (445) 
UO_0000065

>  <canonical_smiles>  (445) 
CC(=O)NS(=O)(=O)c1ccc(N)cc1

>  <parent_molecule_chembl_id>  (445) 
CHEMBL455

>  <assay_type>  (445) 
B

>  <src_id>  (445) 
1

>  <ligand_efficiency>  (445) 
{u'le': u'0.46', u'bei': u'22.15', u'sei': u'4.86', u'lle': u'4.96'}

>  <standard_flag>  (445) 
True

>  <molecule_chembl_id>  (445) 
CHEMBL455

>  <target_organism>  (445) 
Homo sapiens

>  <standard_units>  (445) 
nM

>  <record_id>  (445) 
905311

>  <document_chembl_id>  (445) 
CHEMBL1156232

>  <bao_format>  (445) 
BAO_0000357

>  <data_validity_description>  (445) 
None

>  <activity_id>  (445) 
3237480

>  <standard_type>  (445) 
IC50

>  <target_chembl_id>  (445) 
CHEMBL202

>  <data_validity_comment>  (445) 
None

>  <published_value>  (445) 
18

>  <document_year>  (445) 
2010

>  <target_pref_name>  (445) 
Dihydrofolate reductase

>  <assay_chembl_id>  (445) 
CHEMBL1113554

>  <standard_relation>  (445) 
=

>  <assay_description>  (445) 
Inhibition of human DHFR after 2 mins

>  <published_relation>  (445) 
=

>  <standard_value>  (445) 
18000

>  <qudt_units>  (445) 
http://www.openphacts.org/units/Nanomolar

>  <target_tax_id>  (445) 
9606

>  <bao_label>  (445) 
single protein format

>  <published_units>  (445) 
uM

>  <pchembl_value>  (445) 
4.75

>  <published_type>  (445) 
IC50

>  <activity_comment>  (445) 
None

$$$$

     RDKit          

 29 32  0  0  0  0  0  0  0  0999 V2000
    0.0000    0.0000    0.0000 N   0  0  0  0  0  0  0  0  0  0  0  0
    0.0000    0.0000    0.0000 C   0  0  0  0  0  0  0  0  0  0  0  0
    0.0000    0.0000    0.0000 C   0  0  0  0  0  0  0  0  0  0  0  0
    0.0000    0.0000    0.0000 C   0  0  0  0  0  0  0  0  0  0  0  0
    0.0000    0.0000    0.0000 C   0  0  0  0  0  0  0  0  0  0  0  0
    0.0000    0.0000    0.0000 N   0  0  0  0  0  0  0  0  0  0  0  0
    0.0000    0.0000    0.0000 C   0  0  0  0  0  0  0  0  0  0  0  0
    0.0000    0.0000    0.0000 S   0  0  0  0  0  0  0  0  0  0  0  0
    0.0000    0.0000    0.0000 C   0  0  0  0  0  0  0  0  0  0  0  0
    0.0000    0.0000    0.0000 C   0  0  0  0  0  0  0  0  0  0  0  0
    0.0000    0.0000    0.0000 C   0  0  0  0  0  0  0  0  0  0  0  0
    0.0000    0.0000    0.0000 C   0  0  0  0  0  0  0  0  0  0  0  0
    0.0000    0.0000    0.0000 C   0  0  0  0  0  0  0  0  0  0  0  0
    0.0000    0.0000    0.0000 C   0  0  0  0  0  0  0  0  0  0  0  0
    0.0000    0.0000    0.0000 C   0  0  0  0  0  0  0  0  0  0  0  0
    0.0000    0.0000    0.0000 C   0  0  0  0  0  0  0  0  0  0  0  0
    0.0000    0.0000    0.0000 C   0  0  0  0  0  0  0  0  0  0  0  0
    0.0000    0.0000    0.0000 N   0  0  0  0  0  0  0  0  0  0  0  0
    0.0000    0.0000    0.0000 C   0  0  0  0  0  0  0  0  0  0  0  0
    0.0000    0.0000    0.0000 C   0  0  0  0  0  0  0  0  0  0  0  0
    0.0000    0.0000    0.0000 C   0  0  0  0  0  0  0  0  0  0  0  0
    0.0000    0.0000    0.0000 C   0  0  0  0  0  0  0  0  0  0  0  0
    0.0000    0.0000    0.0000 C   0  0  0  0  0  0  0  0  0  0  0  0
    0.0000    0.0000    0.0000 C   0  0  0  0  0  0  0  0  0  0  0  0
    0.0000    0.0000    0.0000 C   0  0  0  0  0  0  0  0  0  0  0  0
    0.0000    0.0000    0.0000 C   0  0  0  0  0  0  0  0  0  0  0  0
    0.0000    0.0000    0.0000 O   0  0  0  0  0  0  0  0  0  0  0  0
    0.0000    0.0000    0.0000 C   0  0  0  0  0  0  0  0  0  0  0  0
    0.0000    0.0000    0.0000 C   0  0  0  0  0  0  0  0  0  0  0  0
  1  2  1  0
  2  3  2  0
  3  4  1  0
  4  5  2  0
  5  6  1  0
  6  7  2  0
  7  8  1  0
  8  9  1  0
  9 10  1  0
 10 11  2  0
 11 12  1  0
 12 13  2  0
 13 14  1  0
 14 15  2  0
 15 16  1  0
 16 17  2  0
  7 18  1  0
 18 19  1  0
 19 20  1  0
 20 21  2  0
 21 22  1  0
 22 23  2  0
 23 24  1  0
 24 25  2  0
 18 26  1  0
 26 27  2  0
 26 28  1  0
 28 29  2  0
 29  2  1  0
 28  5  1  0
 17 12  1  0
 25 20  1  0
M  END
>  <pIC50>  (446) 
5.22

>  <ChEMBL_ID>  (446) 
CHEMBL1093818

>  <document_journal>  (446) 
Bioorg. Med. Chem.

>  <bao_endpoint>  (446) 
BAO_0000190

>  <potential_duplicate>  (446) 
False

>  <uo_units>  (446) 
UO_0000065

>  <canonical_smiles>  (446) 
Nc1ccc2N=C(SC\C=C\c3ccccc3)N(Cc4ccccc4)C(=O)c2c1

>  <parent_molecule_chembl_id>  (446) 
CHEMBL1093818

>  <assay_type>  (446) 
B

>  <src_id>  (446) 
1

>  <ligand_efficiency>  (446) 
{u'le': u'0.25', u'bei': u'13.07', u'sei': u'6.22', u'lle': u'0.1'}

>  <standard_flag>  (446) 
True

>  <molecule_chembl_id>  (446) 
CHEMBL1093818

>  <target_organism>  (446) 
Homo sapiens

>  <standard_units>  (446) 
nM

>  <record_id>  (446) 
905309

>  <document_chembl_id>  (446) 
CHEMBL1156232

>  <bao_format>  (446) 
BAO_0000357

>  <data_validity_description>  (446) 
None

>  <activity_id>  (446) 
3237482

>  <standard_type>  (446) 
IC50

>  <target_chembl_id>  (446) 
CHEMBL202

>  <data_validity_comment>  (446) 
None

>  <published_value>  (446) 
6

>  <document_year>  (446) 
2010

>  <target_pref_name>  (446) 
Dihydrofolate reductase

>  <assay_chembl_id>  (446) 
CHEMBL1113554

>  <standard_relation>  (446) 
=

>  <assay_description>  (446) 
Inhibition of human DHFR after 2 mins

>  <published_relation>  (446) 
=

>  <standard_value>  (446) 
6000

>  <qudt_units>  (446) 
http://www.openphacts.org/units/Nanomolar

>  <target_tax_id>  (446) 
9606

>  <bao_label>  (446) 
single protein format

>  <published_units>  (446) 
uM

>  <pchembl_value>  (446) 
5.22

>  <published_type>  (446) 
IC50

>  <activity_comment>  (446) 
None

$$$$

     RDKit          

 23 25  0  0  0  0  0  0  0  0999 V2000
    0.0000    0.0000    0.0000 N   0  0  0  0  0  0  0  0  0  0  0  0
    0.0000    0.0000    0.0000 C   0  0  0  0  0  0  0  0  0  0  0  0
    0.0000    0.0000    0.0000 C   0  0  0  0  0  0  0  0  0  0  0  0
    0.0000    0.0000    0.0000 C   0  0  0  0  0  0  0  0  0  0  0  0
    0.0000    0.0000    0.0000 C   0  0  0  0  0  0  0  0  0  0  0  0
    0.0000    0.0000    0.0000 N   0  0  0  0  0  0  0  0  0  0  0  0
    0.0000    0.0000    0.0000 C   0  0  0  0  0  0  0  0  0  0  0  0
    0.0000    0.0000    0.0000 S   0  0  0  0  0  0  0  0  0  0  0  0
    0.0000    0.0000    0.0000 C   0  0  0  0  0  0  0  0  0  0  0  0
    0.0000    0.0000    0.0000 C   0  0  0  0  0  0  0  0  0  0  0  0
    0.0000    0.0000    0.0000 C   0  0  0  0  0  0  0  0  0  0  0  0
    0.0000    0.0000    0.0000 N   0  0  0  0  0  0  0  0  0  0  0  0
    0.0000    0.0000    0.0000 C   0  0  0  0  0  0  0  0  0  0  0  0
    0.0000    0.0000    0.0000 C   0  0  0  0  0  0  0  0  0  0  0  0
    0.0000    0.0000    0.0000 C   0  0  0  0  0  0  0  0  0  0  0  0
    0.0000    0.0000    0.0000 C   0  0  0  0  0  0  0  0  0  0  0  0
    0.0000    0.0000    0.0000 C   0  0  0  0  0  0  0  0  0  0  0  0
    0.0000    0.0000    0.0000 C   0  0  0  0  0  0  0  0  0  0  0  0
    0.0000    0.0000    0.0000 C   0  0  0  0  0  0  0  0  0  0  0  0
    0.0000    0.0000    0.0000 C   0  0  0  0  0  0  0  0  0  0  0  0
    0.0000    0.0000    0.0000 O   0  0  0  0  0  0  0  0  0  0  0  0
    0.0000    0.0000    0.0000 C   0  0  0  0  0  0  0  0  0  0  0  0
    0.0000    0.0000    0.0000 C   0  0  0  0  0  0  0  0  0  0  0  0
  1  2  1  0
  2  3  2  0
  3  4  1  0
  4  5  2  0
  5  6  1  0
  6  7  2  0
  7  8  1  0
  8  9  1  0
  9 10  1  0
 10 11  2  0
  7 12  1  0
 12 13  1  0
 13 14  1  0
 14 15  2  0
 15 16  1  0
 16 17  2  0
 17 18  1  0
 18 19  2  0
 12 20  1  0
 20 21  2  0
 20 22  1  0
 22 23  2  0
 23  2  1  0
 22  5  1  0
 19 14  1  0
M  END
>  <pIC50>  (447) 
5.3

>  <ChEMBL_ID>  (447) 
CHEMBL1093491

>  <document_journal>  (447) 
Bioorg. Med. Chem.

>  <bao_endpoint>  (447) 
BAO_0000190

>  <potential_duplicate>  (447) 
False

>  <uo_units>  (447) 
UO_0000065

>  <canonical_smiles>  (447) 
Nc1ccc2N=C(SCC=C)N(Cc3ccccc3)C(=O)c2c1

>  <parent_molecule_chembl_id>  (447) 
CHEMBL1093491

>  <assay_type>  (447) 
B

>  <src_id>  (447) 
1

>  <ligand_efficiency>  (447) 
{u'le': u'0.31', u'bei': u'16.39', u'sei': u'6.31', u'lle': u'1.61'}

>  <standard_flag>  (447) 
True

>  <molecule_chembl_id>  (447) 
CHEMBL1093491

>  <target_organism>  (447) 
Homo sapiens

>  <standard_units>  (447) 
nM

>  <record_id>  (447) 
905308

>  <document_chembl_id>  (447) 
CHEMBL1156232

>  <bao_format>  (447) 
BAO_0000357

>  <data_validity_description>  (447) 
None

>  <activity_id>  (447) 
3237483

>  <standard_type>  (447) 
IC50

>  <target_chembl_id>  (447) 
CHEMBL202

>  <data_validity_comment>  (447) 
None

>  <published_value>  (447) 
5

>  <document_year>  (447) 
2010

>  <target_pref_name>  (447) 
Dihydrofolate reductase

>  <assay_chembl_id>  (447) 
CHEMBL1113554

>  <standard_relation>  (447) 
=

>  <assay_description>  (447) 
Inhibition of human DHFR after 2 mins

>  <published_relation>  (447) 
=

>  <standard_value>  (447) 
5000

>  <qudt_units>  (447) 
http://www.openphacts.org/units/Nanomolar

>  <target_tax_id>  (447) 
9606

>  <bao_label>  (447) 
single protein format

>  <published_units>  (447) 
uM

>  <pchembl_value>  (447) 
5.3

>  <published_type>  (447) 
IC50

>  <activity_comment>  (447) 
None

$$$$

     RDKit          

 31 34  0  0  0  0  0  0  0  0999 V2000
    0.0000    0.0000    0.0000 O   0  0  0  0  0  0  0  0  0  0  0  0
    0.0000    0.0000    0.0000 N   0  0  0  0  0  0  0  0  0  0  0  0
    0.0000    0.0000    0.0000 O   0  0  0  0  0  0  0  0  0  0  0  0
    0.0000    0.0000    0.0000 C   0  0  0  0  0  0  0  0  0  0  0  0
    0.0000    0.0000    0.0000 C   0  0  0  0  0  0  0  0  0  0  0  0
    0.0000    0.0000    0.0000 C   0  0  0  0  0  0  0  0  0  0  0  0
    0.0000    0.0000    0.0000 C   0  0  0  0  0  0  0  0  0  0  0  0
    0.0000    0.0000    0.0000 N   0  0  0  0  0  0  0  0  0  0  0  0
    0.0000    0.0000    0.0000 C   0  0  0  0  0  0  0  0  0  0  0  0
    0.0000    0.0000    0.0000 S   0  0  0  0  0  0  0  0  0  0  0  0
    0.0000    0.0000    0.0000 C   0  0  0  0  0  0  0  0  0  0  0  0
    0.0000    0.0000    0.0000 C   0  0  0  0  0  0  0  0  0  0  0  0
    0.0000    0.0000    0.0000 C   0  0  0  0  0  0  0  0  0  0  0  0
    0.0000    0.0000    0.0000 C   0  0  0  0  0  0  0  0  0  0  0  0
    0.0000    0.0000    0.0000 C   0  0  0  0  0  0  0  0  0  0  0  0
    0.0000    0.0000    0.0000 C   0  0  0  0  0  0  0  0  0  0  0  0
    0.0000    0.0000    0.0000 C   0  0  0  0  0  0  0  0  0  0  0  0
    0.0000    0.0000    0.0000 C   0  0  0  0  0  0  0  0  0  0  0  0
    0.0000    0.0000    0.0000 C   0  0  0  0  0  0  0  0  0  0  0  0
    0.0000    0.0000    0.0000 N   0  0  0  0  0  0  0  0  0  0  0  0
    0.0000    0.0000    0.0000 C   0  0  0  0  0  0  0  0  0  0  0  0
    0.0000    0.0000    0.0000 C   0  0  0  0  0  0  0  0  0  0  0  0
    0.0000    0.0000    0.0000 C   0  0  0  0  0  0  0  0  0  0  0  0
    0.0000    0.0000    0.0000 C   0  0  0  0  0  0  0  0  0  0  0  0
    0.0000    0.0000    0.0000 C   0  0  0  0  0  0  0  0  0  0  0  0
    0.0000    0.0000    0.0000 C   0  0  0  0  0  0  0  0  0  0  0  0
    0.0000    0.0000    0.0000 C   0  0  0  0  0  0  0  0  0  0  0  0
    0.0000    0.0000    0.0000 C   0  0  0  0  0  0  0  0  0  0  0  0
    0.0000    0.0000    0.0000 O   0  0  0  0  0  0  0  0  0  0  0  0
    0.0000    0.0000    0.0000 C   0  0  0  0  0  0  0  0  0  0  0  0
    0.0000    0.0000    0.0000 C   0  0  0  0  0  0  0  0  0  0  0  0
  1  2  1  0
  2  3  2  0
  2  4  1  0
  4  5  2  0
  5  6  1  0
  6  7  2  0
  7  8  1  0
  8  9  2  0
  9 10  1  0
 10 11  1  0
 11 12  1  0
 12 13  2  0
 13 14  1  0
 14 15  2  0
 15 16  1  0
 16 17  2  0
 17 18  1  0
 18 19  2  0
  9 20  1  0
 20 21  1  0
 21 22  1  0
 22 23  2  0
 23 24  1  0
 24 25  2  0
 25 26  1  0
 26 27  2  0
 20 28  1  0
 28 29  2  0
 28 30  1  0
 30 31  2  0
 31  4  1  0
 30  7  1  0
 19 14  1  0
 27 22  1  0
M  CHG  2   1  -1   2   1
M  END
>  <pIC50>  (448) 
5.52

>  <ChEMBL_ID>  (448) 
CHEMBL1091603

>  <document_journal>  (448) 
Bioorg. Med. Chem.

>  <bao_endpoint>  (448) 
BAO_0000190

>  <potential_duplicate>  (448) 
False

>  <uo_units>  (448) 
UO_0000065

>  <canonical_smiles>  (448) 
[O-][N+](=O)c1ccc2N=C(SC\C=C\c3ccccc3)N(Cc4ccccc4)C(=O)c2c1

>  <parent_molecule_chembl_id>  (448) 
CHEMBL1091603

>  <assay_type>  (448) 
B

>  <src_id>  (448) 
1

>  <ligand_efficiency>  (448) 
{u'le': u'0.24', u'bei': u'12.86', u'sei': u'5.32', u'lle': u'-0.25'}

>  <standard_flag>  (448) 
True

>  <molecule_chembl_id>  (448) 
CHEMBL1091603

>  <target_organism>  (448) 
Homo sapiens

>  <standard_units>  (448) 
nM

>  <record_id>  (448) 
905261

>  <document_chembl_id>  (448) 
CHEMBL1156232

>  <bao_format>  (448) 
BAO_0000357

>  <data_validity_description>  (448) 
None

>  <activity_id>  (448) 
3237484

>  <standard_type>  (448) 
IC50

>  <target_chembl_id>  (448) 
CHEMBL202

>  <data_validity_comment>  (448) 
None

>  <published_value>  (448) 
3

>  <document_year>  (448) 
2010

>  <target_pref_name>  (448) 
Dihydrofolate reductase

>  <assay_chembl_id>  (448) 
CHEMBL1113554

>  <standard_relation>  (448) 
=

>  <assay_description>  (448) 
Inhibition of human DHFR after 2 mins

>  <published_relation>  (448) 
=

>  <standard_value>  (448) 
3000

>  <qudt_units>  (448) 
http://www.openphacts.org/units/Nanomolar

>  <target_tax_id>  (448) 
9606

>  <bao_label>  (448) 
single protein format

>  <published_units>  (448) 
uM

>  <pchembl_value>  (448) 
5.52

>  <published_type>  (448) 
IC50

>  <activity_comment>  (448) 
None

$$$$

     RDKit          

 29 32  0  0  0  0  0  0  0  0999 V2000
    0.0000    0.0000    0.0000 C   0  0  0  0  0  0  0  0  0  0  0  0
    0.0000    0.0000    0.0000 C   0  0  0  0  0  0  0  0  0  0  0  0
    0.0000    0.0000    0.0000 C   0  0  0  0  0  0  0  0  0  0  0  0
    0.0000    0.0000    0.0000 C   0  0  0  0  0  0  0  0  0  0  0  0
    0.0000    0.0000    0.0000 C   0  0  0  0  0  0  0  0  0  0  0  0
    0.0000    0.0000    0.0000 N   0  0  0  0  0  0  0  0  0  0  0  0
    0.0000    0.0000    0.0000 C   0  0  0  0  0  0  0  0  0  0  0  0
    0.0000    0.0000    0.0000 S   0  0  0  0  0  0  0  0  0  0  0  0
    0.0000    0.0000    0.0000 C   0  0  0  0  0  0  0  0  0  0  0  0
    0.0000    0.0000    0.0000 C   0  0  0  0  0  0  0  0  0  0  0  0
    0.0000    0.0000    0.0000 C   0  0  0  0  0  0  0  0  0  0  0  0
    0.0000    0.0000    0.0000 C   0  0  0  0  0  0  0  0  0  0  0  0
    0.0000    0.0000    0.0000 C   0  0  0  0  0  0  0  0  0  0  0  0
    0.0000    0.0000    0.0000 C   0  0  0  0  0  0  0  0  0  0  0  0
    0.0000    0.0000    0.0000 C   0  0  0  0  0  0  0  0  0  0  0  0
    0.0000    0.0000    0.0000 C   0  0  0  0  0  0  0  0  0  0  0  0
    0.0000    0.0000    0.0000 C   0  0  0  0  0  0  0  0  0  0  0  0
    0.0000    0.0000    0.0000 N   0  0  0  0  0  0  0  0  0  0  0  0
    0.0000    0.0000    0.0000 C   0  0  0  0  0  0  0  0  0  0  0  0
    0.0000    0.0000    0.0000 C   0  0  0  0  0  0  0  0  0  0  0  0
    0.0000    0.0000    0.0000 C   0  0  0  0  0  0  0  0  0  0  0  0
    0.0000    0.0000    0.0000 C   0  0  0  0  0  0  0  0  0  0  0  0
    0.0000    0.0000    0.0000 C   0  0  0  0  0  0  0  0  0  0  0  0
    0.0000    0.0000    0.0000 C   0  0  0  0  0  0  0  0  0  0  0  0
    0.0000    0.0000    0.0000 C   0  0  0  0  0  0  0  0  0  0  0  0
    0.0000    0.0000    0.0000 C   0  0  0  0  0  0  0  0  0  0  0  0
    0.0000    0.0000    0.0000 O   0  0  0  0  0  0  0  0  0  0  0  0
    0.0000    0.0000    0.0000 C   0  0  0  0  0  0  0  0  0  0  0  0
    0.0000    0.0000    0.0000 C   0  0  0  0  0  0  0  0  0  0  0  0
  1  2  1  0
  2  3  2  0
  3  4  1  0
  4  5  2  0
  5  6  1  0
  6  7  2  0
  7  8  1  0
  8  9  1  0
  9 10  1  0
 10 11  2  0
 11 12  1  0
 12 13  2  0
 13 14  1  0
 14 15  2  0
 15 16  1  0
 16 17  2  0
  7 18  1  0
 18 19  1  0
 19 20  1  0
 20 21  2  0
 21 22  1  0
 22 23  2  0
 23 24  1  0
 24 25  2  0
 18 26  1  0
 26 27  2  0
 26 28  1  0
 28 29  2  0
 29  2  1  0
 28  5  1  0
 17 12  1  0
 25 20  1  0
M  END
>  <pIC50>  (449) 
6.0

>  <ChEMBL_ID>  (449) 
CHEMBL1091244

>  <document_journal>  (449) 
Bioorg. Med. Chem.

>  <bao_endpoint>  (449) 
BAO_0000190

>  <potential_duplicate>  (449) 
False

>  <uo_units>  (449) 
UO_0000065

>  <canonical_smiles>  (449) 
Cc1ccc2N=C(SC\C=C\c3ccccc3)N(Cc4ccccc4)C(=O)c2c1

>  <parent_molecule_chembl_id>  (449) 
CHEMBL1091244

>  <assay_type>  (449) 
B

>  <src_id>  (449) 
1

>  <ligand_efficiency>  (449) 
{u'le': u'0.28', u'bei': u'15.06', u'sei': u'10.35', u'lle': u'-0.36'}

>  <standard_flag>  (449) 
True

>  <molecule_chembl_id>  (449) 
CHEMBL1091244

>  <target_organism>  (449) 
Homo sapiens

>  <standard_units>  (449) 
nM

>  <record_id>  (449) 
905260

>  <document_chembl_id>  (449) 
CHEMBL1156232

>  <bao_format>  (449) 
BAO_0000357

>  <data_validity_description>  (449) 
None

>  <activity_id>  (449) 
3237485

>  <standard_type>  (449) 
IC50

>  <target_chembl_id>  (449) 
CHEMBL202

>  <data_validity_comment>  (449) 
None

>  <published_value>  (449) 
1

>  <document_year>  (449) 
2010

>  <target_pref_name>  (449) 
Dihydrofolate reductase

>  <assay_chembl_id>  (449) 
CHEMBL1113554

>  <standard_relation>  (449) 
=

>  <assay_description>  (449) 
Inhibition of human DHFR after 2 mins

>  <published_relation>  (449) 
=

>  <standard_value>  (449) 
1000

>  <qudt_units>  (449) 
http://www.openphacts.org/units/Nanomolar

>  <target_tax_id>  (449) 
9606

>  <bao_label>  (449) 
single protein format

>  <published_units>  (449) 
uM

>  <pchembl_value>  (449) 
6

>  <published_type>  (449) 
IC50

>  <activity_comment>  (449) 
None

$$$$

     RDKit          

 25 27  0  0  0  0  0  0  0  0999 V2000
    0.0000    0.0000    0.0000 O   0  0  0  0  0  0  0  0  0  0  0  0
    0.0000    0.0000    0.0000 N   0  0  0  0  0  0  0  0  0  0  0  0
    0.0000    0.0000    0.0000 O   0  0  0  0  0  0  0  0  0  0  0  0
    0.0000    0.0000    0.0000 C   0  0  0  0  0  0  0  0  0  0  0  0
    0.0000    0.0000    0.0000 C   0  0  0  0  0  0  0  0  0  0  0  0
    0.0000    0.0000    0.0000 C   0  0  0  0  0  0  0  0  0  0  0  0
    0.0000    0.0000    0.0000 C   0  0  0  0  0  0  0  0  0  0  0  0
    0.0000    0.0000    0.0000 N   0  0  0  0  0  0  0  0  0  0  0  0
    0.0000    0.0000    0.0000 C   0  0  0  0  0  0  0  0  0  0  0  0
    0.0000    0.0000    0.0000 S   0  0  0  0  0  0  0  0  0  0  0  0
    0.0000    0.0000    0.0000 C   0  0  0  0  0  0  0  0  0  0  0  0
    0.0000    0.0000    0.0000 C   0  0  0  0  0  0  0  0  0  0  0  0
    0.0000    0.0000    0.0000 C   0  0  0  0  0  0  0  0  0  0  0  0
    0.0000    0.0000    0.0000 N   0  0  0  0  0  0  0  0  0  0  0  0
    0.0000    0.0000    0.0000 C   0  0  0  0  0  0  0  0  0  0  0  0
    0.0000    0.0000    0.0000 C   0  0  0  0  0  0  0  0  0  0  0  0
    0.0000    0.0000    0.0000 C   0  0  0  0  0  0  0  0  0  0  0  0
    0.0000    0.0000    0.0000 C   0  0  0  0  0  0  0  0  0  0  0  0
    0.0000    0.0000    0.0000 C   0  0  0  0  0  0  0  0  0  0  0  0
    0.0000    0.0000    0.0000 C   0  0  0  0  0  0  0  0  0  0  0  0
    0.0000    0.0000    0.0000 C   0  0  0  0  0  0  0  0  0  0  0  0
    0.0000    0.0000    0.0000 C   0  0  0  0  0  0  0  0  0  0  0  0
    0.0000    0.0000    0.0000 O   0  0  0  0  0  0  0  0  0  0  0  0
    0.0000    0.0000    0.0000 C   0  0  0  0  0  0  0  0  0  0  0  0
    0.0000    0.0000    0.0000 C   0  0  0  0  0  0  0  0  0  0  0  0
  1  2  1  0
  2  3  2  0
  2  4  1  0
  4  5  2  0
  5  6  1  0
  6  7  2  0
  7  8  1  0
  8  9  2  0
  9 10  1  0
 10 11  1  0
 11 12  1  0
 12 13  2  0
  9 14  1  0
 14 15  1  0
 15 16  1  0
 16 17  2  0
 17 18  1  0
 18 19  2  0
 19 20  1  0
 20 21  2  0
 14 22  1  0
 22 23  2  0
 22 24  1  0
 24 25  2  0
 25  4  1  0
 24  7  1  0
 21 16  1  0
M  CHG  2   1  -1   2   1
M  END
>  <pIC50>  (450) 
5.7

>  <ChEMBL_ID>  (450) 
CHEMBL1092451

>  <document_journal>  (450) 
Bioorg. Med. Chem.

>  <bao_endpoint>  (450) 
BAO_0000190

>  <potential_duplicate>  (450) 
False

>  <uo_units>  (450) 
UO_0000065

>  <canonical_smiles>  (450) 
[O-][N+](=O)c1ccc2N=C(SCC=C)N(Cc3ccccc3)C(=O)c2c1

>  <parent_molecule_chembl_id>  (450) 
CHEMBL1092451

>  <assay_type>  (450) 
B

>  <src_id>  (450) 
1

>  <ligand_efficiency>  (450) 
{u'le': u'0.31', u'bei': u'16.13', u'sei': u'5.49', u'lle': u'1.37'}

>  <standard_flag>  (450) 
True

>  <molecule_chembl_id>  (450) 
CHEMBL1092451

>  <target_organism>  (450) 
Homo sapiens

>  <standard_units>  (450) 
nM

>  <record_id>  (450) 
905258

>  <document_chembl_id>  (450) 
CHEMBL1156232

>  <bao_format>  (450) 
BAO_0000357

>  <data_validity_description>  (450) 
None

>  <activity_id>  (450) 
3237487

>  <standard_type>  (450) 
IC50

>  <target_chembl_id>  (450) 
CHEMBL202

>  <data_validity_comment>  (450) 
None

>  <published_value>  (450) 
2

>  <document_year>  (450) 
2010

>  <target_pref_name>  (450) 
Dihydrofolate reductase

>  <assay_chembl_id>  (450) 
CHEMBL1113554

>  <standard_relation>  (450) 
=

>  <assay_description>  (450) 
Inhibition of human DHFR after 2 mins

>  <published_relation>  (450) 
=

>  <standard_value>  (450) 
2000

>  <qudt_units>  (450) 
http://www.openphacts.org/units/Nanomolar

>  <target_tax_id>  (450) 
9606

>  <bao_label>  (450) 
single protein format

>  <published_units>  (450) 
uM

>  <pchembl_value>  (450) 
5.7

>  <published_type>  (450) 
IC50

>  <activity_comment>  (450) 
None

$$$$

     RDKit          

 23 25  0  0  0  0  0  0  0  0999 V2000
    0.0000    0.0000    0.0000 C   0  0  0  0  0  0  0  0  0  0  0  0
    0.0000    0.0000    0.0000 C   0  0  0  0  0  0  0  0  0  0  0  0
    0.0000    0.0000    0.0000 C   0  0  0  0  0  0  0  0  0  0  0  0
    0.0000    0.0000    0.0000 C   0  0  0  0  0  0  0  0  0  0  0  0
    0.0000    0.0000    0.0000 C   0  0  0  0  0  0  0  0  0  0  0  0
    0.0000    0.0000    0.0000 N   0  0  0  0  0  0  0  0  0  0  0  0
    0.0000    0.0000    0.0000 C   0  0  0  0  0  0  0  0  0  0  0  0
    0.0000    0.0000    0.0000 S   0  0  0  0  0  0  0  0  0  0  0  0
    0.0000    0.0000    0.0000 C   0  0  0  0  0  0  0  0  0  0  0  0
    0.0000    0.0000    0.0000 C   0  0  0  0  0  0  0  0  0  0  0  0
    0.0000    0.0000    0.0000 C   0  0  0  0  0  0  0  0  0  0  0  0
    0.0000    0.0000    0.0000 N   0  0  0  0  0  0  0  0  0  0  0  0
    0.0000    0.0000    0.0000 C   0  0  0  0  0  0  0  0  0  0  0  0
    0.0000    0.0000    0.0000 C   0  0  0  0  0  0  0  0  0  0  0  0
    0.0000    0.0000    0.0000 C   0  0  0  0  0  0  0  0  0  0  0  0
    0.0000    0.0000    0.0000 C   0  0  0  0  0  0  0  0  0  0  0  0
    0.0000    0.0000    0.0000 C   0  0  0  0  0  0  0  0  0  0  0  0
    0.0000    0.0000    0.0000 C   0  0  0  0  0  0  0  0  0  0  0  0
    0.0000    0.0000    0.0000 C   0  0  0  0  0  0  0  0  0  0  0  0
    0.0000    0.0000    0.0000 C   0  0  0  0  0  0  0  0  0  0  0  0
    0.0000    0.0000    0.0000 O   0  0  0  0  0  0  0  0  0  0  0  0
    0.0000    0.0000    0.0000 C   0  0  0  0  0  0  0  0  0  0  0  0
    0.0000    0.0000    0.0000 C   0  0  0  0  0  0  0  0  0  0  0  0
  1  2  1  0
  2  3  2  0
  3  4  1  0
  4  5  2  0
  5  6  1  0
  6  7  2  0
  7  8  1  0
  8  9  1  0
  9 10  1  0
 10 11  2  0
  7 12  1  0
 12 13  1  0
 13 14  1  0
 14 15  2  0
 15 16  1  0
 16 17  2  0
 17 18  1  0
 18 19  2  0
 12 20  1  0
 20 21  2  0
 20 22  1  0
 22 23  2  0
 23  2  1  0
 22  5  1  0
 19 14  1  0
M  END
>  <pIC50>  (451) 
5.4

>  <ChEMBL_ID>  (451) 
CHEMBL1091255

>  <document_journal>  (451) 
Bioorg. Med. Chem.

>  <bao_endpoint>  (451) 
BAO_0000190

>  <potential_duplicate>  (451) 
False

>  <uo_units>  (451) 
UO_0000065

>  <canonical_smiles>  (451) 
Cc1ccc2N=C(SCC=C)N(Cc3ccccc3)C(=O)c2c1

>  <parent_molecule_chembl_id>  (451) 
CHEMBL1091255

>  <assay_type>  (451) 
B

>  <src_id>  (451) 
1

>  <ligand_efficiency>  (451) 
{u'le': u'0.32', u'bei': u'16.74', u'sei': u'9.31', u'lle': u'0.48'}

>  <standard_flag>  (451) 
True

>  <molecule_chembl_id>  (451) 
CHEMBL1091255

>  <target_organism>  (451) 
Homo sapiens

>  <standard_units>  (451) 
nM

>  <record_id>  (451) 
905198

>  <document_chembl_id>  (451) 
CHEMBL1156232

>  <bao_format>  (451) 
BAO_0000357

>  <data_validity_description>  (451) 
None

>  <activity_id>  (451) 
3237488

>  <standard_type>  (451) 
IC50

>  <target_chembl_id>  (451) 
CHEMBL202

>  <data_validity_comment>  (451) 
None

>  <published_value>  (451) 
4

>  <document_year>  (451) 
2010

>  <target_pref_name>  (451) 
Dihydrofolate reductase

>  <assay_chembl_id>  (451) 
CHEMBL1113554

>  <standard_relation>  (451) 
=

>  <assay_description>  (451) 
Inhibition of human DHFR after 2 mins

>  <published_relation>  (451) 
=

>  <standard_value>  (451) 
4000

>  <qudt_units>  (451) 
http://www.openphacts.org/units/Nanomolar

>  <target_tax_id>  (451) 
9606

>  <bao_label>  (451) 
single protein format

>  <published_units>  (451) 
uM

>  <pchembl_value>  (451) 
5.4

>  <published_type>  (451) 
IC50

>  <activity_comment>  (451) 
None

$$$$

     RDKit          

 24 26  0  0  0  0  0  0  0  0999 V2000
    0.0000    0.0000    0.0000 C   0  0  0  0  0  0  0  0  0  0  0  0
    0.0000    0.0000    0.0000 O   0  0  0  0  0  0  0  0  0  0  0  0
    0.0000    0.0000    0.0000 C   0  0  0  0  0  0  0  0  0  0  0  0
    0.0000    0.0000    0.0000 C   0  0  0  0  0  0  0  0  0  0  0  0
    0.0000    0.0000    0.0000 C   0  0  0  0  0  0  0  0  0  0  0  0
    0.0000    0.0000    0.0000 C   0  0  0  0  0  0  0  0  0  0  0  0
    0.0000    0.0000    0.0000 N   0  0  0  0  0  0  0  0  0  0  0  0
    0.0000    0.0000    0.0000 C   0  0  0  0  0  0  0  0  0  0  0  0
    0.0000    0.0000    0.0000 C   0  0  0  0  0  0  0  0  0  0  0  0
    0.0000    0.0000    0.0000 C   0  0  0  0  0  0  0  0  0  0  0  0
    0.0000    0.0000    0.0000 C   0  0  0  0  0  0  0  0  0  0  0  0
    0.0000    0.0000    0.0000 C   0  0  0  0  0  0  0  0  0  0  0  0
    0.0000    0.0000    0.0000 N   0  0  0  0  0  0  0  0  0  0  0  0
    0.0000    0.0000    0.0000 C   0  0  0  0  0  0  0  0  0  0  0  0
    0.0000    0.0000    0.0000 N   0  0  0  0  0  0  0  0  0  0  0  0
    0.0000    0.0000    0.0000 N   0  0  0  0  0  0  0  0  0  0  0  0
    0.0000    0.0000    0.0000 C   0  0  0  0  0  0  0  0  0  0  0  0
    0.0000    0.0000    0.0000 N   0  0  0  0  0  0  0  0  0  0  0  0
    0.0000    0.0000    0.0000 C   0  0  0  0  0  0  0  0  0  0  0  0
    0.0000    0.0000    0.0000 C   0  0  0  0  0  0  0  0  0  0  0  0
    0.0000    0.0000    0.0000 C   0  0  0  0  0  0  0  0  0  0  0  0
    0.0000    0.0000    0.0000 C   0  0  0  0  0  0  0  0  0  0  0  0
    0.0000    0.0000    0.0000 O   0  0  0  0  0  0  0  0  0  0  0  0
    0.0000    0.0000    0.0000 C   0  0  0  0  0  0  0  0  0  0  0  0
  1  2  1  0
  2  3  1  0
  3  4  2  0
  4  5  1  0
  5  6  2  0
  6  7  1  0
  7  8  1  0
  8  9  1  0
  9 10  2  0
 10 11  1  0
 11 12  2  0
 12 13  1  0
 13 14  2  0
 14 15  1  0
 14 16  1  0
 16 17  2  0
 17 18  1  0
 17 19  1  0
 19 20  2  0
  6 21  1  0
 21 22  2  0
 22 23  1  0
 23 24  1  0
 22  3  1  0
 20  9  1  0
 19 12  1  0
M  END
>  <pIC50>  (452) 
7.07

>  <ChEMBL_ID>  (452) 
CHEMBL1163286

>  <document_journal>  (452) 
Bioorg. Med. Chem.

>  <bao_endpoint>  (452) 
BAO_0000190

>  <potential_duplicate>  (452) 
False

>  <uo_units>  (452) 
UO_0000065

>  <canonical_smiles>  (452) 
COc1ccc(NCc2ccc3nc(N)nc(N)c3c2)cc1OC

>  <parent_molecule_chembl_id>  (452) 
CHEMBL1163286

>  <assay_type>  (452) 
B

>  <src_id>  (452) 
1

>  <ligand_efficiency>  (452) 
{u'le': u'0.4', u'bei': u'21.72', u'sei': u'6.53', u'lle': u'4.76'}

>  <standard_flag>  (452) 
True

>  <molecule_chembl_id>  (452) 
CHEMBL1163286

>  <target_organism>  (452) 
Homo sapiens

>  <standard_units>  (452) 
nM

>  <record_id>  (452) 
919450

>  <document_chembl_id>  (452) 
CHEMBL1165926

>  <bao_format>  (452) 
BAO_0000357

>  <data_validity_description>  (452) 
None

>  <activity_id>  (452) 
3342542

>  <standard_type>  (452) 
IC50

>  <target_chembl_id>  (452) 
CHEMBL202

>  <data_validity_comment>  (452) 
None

>  <published_value>  (452) 
85.5

>  <document_year>  (452) 
2010

>  <target_pref_name>  (452) 
Dihydrofolate reductase

>  <assay_chembl_id>  (452) 
CHEMBL1167427

>  <standard_relation>  (452) 
=

>  <assay_description>  (452) 
Inhibition of human DHFR by spectrophotometric assay

>  <published_relation>  (452) 
=

>  <standard_value>  (452) 
85.5

>  <qudt_units>  (452) 
http://www.openphacts.org/units/Nanomolar

>  <target_tax_id>  (452) 
9606

>  <bao_label>  (452) 
single protein format

>  <published_units>  (452) 
nM

>  <pchembl_value>  (452) 
7.07

>  <published_type>  (452) 
IC50

>  <activity_comment>  (452) 
None

$$$$

     RDKit          

 31 33  0  0  0  0  0  0  0  0999 V2000
    0.0000    0.0000    0.0000 C   0  0  0  0  0  0  0  0  0  0  0  0
    0.0000    0.0000    0.0000 C   0  0  0  0  0  0  0  0  0  0  0  0
    0.0000    0.0000    0.0000 O   0  0  0  0  0  0  0  0  0  0  0  0
    0.0000    0.0000    0.0000 C   0  0  0  0  0  0  0  0  0  0  0  0
    0.0000    0.0000    0.0000 O   0  0  0  0  0  0  0  0  0  0  0  0
    0.0000    0.0000    0.0000 C   0  0  0  0  0  0  0  0  0  0  0  0
    0.0000    0.0000    0.0000 C   0  0  0  0  0  0  0  0  0  0  0  0
    0.0000    0.0000    0.0000 C   0  0  0  0  0  0  0  0  0  0  0  0
    0.0000    0.0000    0.0000 O   0  0  0  0  0  0  0  0  0  0  0  0
    0.0000    0.0000    0.0000 C   0  0  0  0  0  0  0  0  0  0  0  0
    0.0000    0.0000    0.0000 C   0  0  0  0  0  0  0  0  0  0  0  0
    0.0000    0.0000    0.0000 C   0  0  0  0  0  0  0  0  0  0  0  0
    0.0000    0.0000    0.0000 N   0  0  0  0  0  0  0  0  0  0  0  0
    0.0000    0.0000    0.0000 C   0  0  0  0  0  0  0  0  0  0  0  0
    0.0000    0.0000    0.0000 C   0  0  0  0  0  0  0  0  0  0  0  0
    0.0000    0.0000    0.0000 C   0  0  0  0  0  0  0  0  0  0  0  0
    0.0000    0.0000    0.0000 C   0  0  0  0  0  0  0  0  0  0  0  0
    0.0000    0.0000    0.0000 C   0  0  0  0  0  0  0  0  0  0  0  0
    0.0000    0.0000    0.0000 N   0  0  0  0  0  0  0  0  0  0  0  0
    0.0000    0.0000    0.0000 C   0  0  0  0  0  0  0  0  0  0  0  0
    0.0000    0.0000    0.0000 N   0  0  0  0  0  0  0  0  0  0  0  0
    0.0000    0.0000    0.0000 N   0  0  0  0  0  0  0  0  0  0  0  0
    0.0000    0.0000    0.0000 C   0  0  0  0  0  0  0  0  0  0  0  0
    0.0000    0.0000    0.0000 N   0  0  0  0  0  0  0  0  0  0  0  0
    0.0000    0.0000    0.0000 C   0  0  0  0  0  0  0  0  0  0  0  0
    0.0000    0.0000    0.0000 C   0  0  0  0  0  0  0  0  0  0  0  0
    0.0000    0.0000    0.0000 C   0  0  0  0  0  0  0  0  0  0  0  0
    0.0000    0.0000    0.0000 C   0  0  0  0  0  0  0  0  0  0  0  0
    0.0000    0.0000    0.0000 C   0  0  0  0  0  0  0  0  0  0  0  0
    0.0000    0.0000    0.0000 O   0  0  0  0  0  0  0  0  0  0  0  0
    0.0000    0.0000    0.0000 C   0  0  0  0  0  0  0  0  0  0  0  0
  1  2  1  0
  2  3  1  0
  3  4  1  0
  4  5  2  0
  4  6  1  0
  6  7  1  0
  7  8  1  0
  8  9  1  0
  9 10  1  0
 10 11  2  0
 11 12  1  0
 12 13  1  0
 13 14  1  0
 14 15  1  0
 15 16  2  0
 16 17  1  0
 17 18  2  0
 18 19  1  0
 19 20  2  0
 20 21  1  0
 20 22  1  0
 22 23  2  0
 23 24  1  0
 23 25  1  0
 25 26  2  0
 12 27  2  0
 27 28  1  0
 28 29  2  0
 29 30  1  0
 30 31  1  0
 29 10  1  0
 26 15  1  0
 25 18  1  0
M  END
>  <pIC50>  (453) 
7.17

>  <ChEMBL_ID>  (453) 
CHEMBL1165388

>  <document_journal>  (453) 
Bioorg. Med. Chem.

>  <bao_endpoint>  (453) 
BAO_0000190

>  <potential_duplicate>  (453) 
False

>  <uo_units>  (453) 
UO_0000065

>  <canonical_smiles>  (453) 
CCOC(=O)CCCOc1cc(NCc2ccc3nc(N)nc(N)c3c2)ccc1OC

>  <parent_molecule_chembl_id>  (453) 
CHEMBL1165388

>  <assay_type>  (453) 
B

>  <src_id>  (453) 
1

>  <ligand_efficiency>  (453) 
{u'le': u'0.32', u'bei': u'16.84', u'sei': u'5.32', u'lle': u'4.23'}

>  <standard_flag>  (453) 
True

>  <molecule_chembl_id>  (453) 
CHEMBL1165388

>  <target_organism>  (453) 
Homo sapiens

>  <standard_units>  (453) 
nM

>  <record_id>  (453) 
919518

>  <document_chembl_id>  (453) 
CHEMBL1165926

>  <bao_format>  (453) 
BAO_0000357

>  <data_validity_description>  (453) 
None

>  <activity_id>  (453) 
3342543

>  <standard_type>  (453) 
IC50

>  <target_chembl_id>  (453) 
CHEMBL202

>  <data_validity_comment>  (453) 
None

>  <published_value>  (453) 
68.3

>  <document_year>  (453) 
2010

>  <target_pref_name>  (453) 
Dihydrofolate reductase

>  <assay_chembl_id>  (453) 
CHEMBL1167427

>  <standard_relation>  (453) 
=

>  <assay_description>  (453) 
Inhibition of human DHFR by spectrophotometric assay

>  <published_relation>  (453) 
=

>  <standard_value>  (453) 
68.3

>  <qudt_units>  (453) 
http://www.openphacts.org/units/Nanomolar

>  <target_tax_id>  (453) 
9606

>  <bao_label>  (453) 
single protein format

>  <published_units>  (453) 
nM

>  <pchembl_value>  (453) 
7.17

>  <published_type>  (453) 
IC50

>  <activity_comment>  (453) 
None

$$$$

     RDKit          

 31 33  0  0  0  0  0  0  0  0999 V2000
    0.0000    0.0000    0.0000 C   0  0  0  0  0  0  0  0  0  0  0  0
    0.0000    0.0000    0.0000 O   0  0  0  0  0  0  0  0  0  0  0  0
    0.0000    0.0000    0.0000 C   0  0  0  0  0  0  0  0  0  0  0  0
    0.0000    0.0000    0.0000 O   0  0  0  0  0  0  0  0  0  0  0  0
    0.0000    0.0000    0.0000 C   0  0  0  0  0  0  0  0  0  0  0  0
    0.0000    0.0000    0.0000 C   0  0  0  0  0  0  0  0  0  0  0  0
    0.0000    0.0000    0.0000 C   0  0  0  0  0  0  0  0  0  0  0  0
    0.0000    0.0000    0.0000 C   0  0  0  0  0  0  0  0  0  0  0  0
    0.0000    0.0000    0.0000 O   0  0  0  0  0  0  0  0  0  0  0  0
    0.0000    0.0000    0.0000 C   0  0  0  0  0  0  0  0  0  0  0  0
    0.0000    0.0000    0.0000 C   0  0  0  0  0  0  0  0  0  0  0  0
    0.0000    0.0000    0.0000 C   0  0  0  0  0  0  0  0  0  0  0  0
    0.0000    0.0000    0.0000 N   0  0  0  0  0  0  0  0  0  0  0  0
    0.0000    0.0000    0.0000 C   0  0  0  0  0  0  0  0  0  0  0  0
    0.0000    0.0000    0.0000 C   0  0  0  0  0  0  0  0  0  0  0  0
    0.0000    0.0000    0.0000 C   0  0  0  0  0  0  0  0  0  0  0  0
    0.0000    0.0000    0.0000 C   0  0  0  0  0  0  0  0  0  0  0  0
    0.0000    0.0000    0.0000 C   0  0  0  0  0  0  0  0  0  0  0  0
    0.0000    0.0000    0.0000 N   0  0  0  0  0  0  0  0  0  0  0  0
    0.0000    0.0000    0.0000 C   0  0  0  0  0  0  0  0  0  0  0  0
    0.0000    0.0000    0.0000 N   0  0  0  0  0  0  0  0  0  0  0  0
    0.0000    0.0000    0.0000 N   0  0  0  0  0  0  0  0  0  0  0  0
    0.0000    0.0000    0.0000 C   0  0  0  0  0  0  0  0  0  0  0  0
    0.0000    0.0000    0.0000 N   0  0  0  0  0  0  0  0  0  0  0  0
    0.0000    0.0000    0.0000 C   0  0  0  0  0  0  0  0  0  0  0  0
    0.0000    0.0000    0.0000 C   0  0  0  0  0  0  0  0  0  0  0  0
    0.0000    0.0000    0.0000 C   0  0  0  0  0  0  0  0  0  0  0  0
    0.0000    0.0000    0.0000 C   0  0  0  0  0  0  0  0  0  0  0  0
    0.0000    0.0000    0.0000 C   0  0  0  0  0  0  0  0  0  0  0  0
    0.0000    0.0000    0.0000 O   0  0  0  0  0  0  0  0  0  0  0  0
    0.0000    0.0000    0.0000 C   0  0  0  0  0  0  0  0  0  0  0  0
  1  2  1  0
  2  3  1  0
  3  4  2  0
  3  5  1  0
  5  6  1  0
  6  7  1  0
  7  8  1  0
  8  9  1  0
  9 10  1  0
 10 11  2  0
 11 12  1  0
 12 13  1  0
 13 14  1  0
 14 15  1  0
 15 16  2  0
 16 17  1  0
 17 18  2  0
 18 19  1  0
 19 20  2  0
 20 21  1  0
 20 22  1  0
 22 23  2  0
 23 24  1  0
 23 25  1  0
 25 26  2  0
 12 27  2  0
 27 28  1  0
 28 29  2  0
 29 30  1  0
 30 31  1  0
 29 10  1  0
 26 15  1  0
 25 18  1  0
M  END
>  <pIC50>  (454) 
7.03

>  <ChEMBL_ID>  (454) 
CHEMBL1165305

>  <document_journal>  (454) 
Bioorg. Med. Chem.

>  <bao_endpoint>  (454) 
BAO_0000190

>  <potential_duplicate>  (454) 
False

>  <uo_units>  (454) 
UO_0000065

>  <canonical_smiles>  (454) 
COC(=O)CCCCOc1cc(NCc2ccc3nc(N)nc(N)c3c2)ccc1OC

>  <parent_molecule_chembl_id>  (454) 
CHEMBL1165305

>  <assay_type>  (454) 
B

>  <src_id>  (454) 
1

>  <ligand_efficiency>  (454) 
{u'le': u'0.31', u'bei': u'16.52', u'sei': u'5.22', u'lle': u'3.98'}

>  <standard_flag>  (454) 
True

>  <molecule_chembl_id>  (454) 
CHEMBL1165305

>  <target_organism>  (454) 
Homo sapiens

>  <standard_units>  (454) 
nM

>  <record_id>  (454) 
919519

>  <document_chembl_id>  (454) 
CHEMBL1165926

>  <bao_format>  (454) 
BAO_0000357

>  <data_validity_description>  (454) 
None

>  <activity_id>  (454) 
3342544

>  <standard_type>  (454) 
IC50

>  <target_chembl_id>  (454) 
CHEMBL202

>  <data_validity_comment>  (454) 
None

>  <published_value>  (454) 
93.5

>  <document_year>  (454) 
2010

>  <target_pref_name>  (454) 
Dihydrofolate reductase

>  <assay_chembl_id>  (454) 
CHEMBL1167427

>  <standard_relation>  (454) 
=

>  <assay_description>  (454) 
Inhibition of human DHFR by spectrophotometric assay

>  <published_relation>  (454) 
=

>  <standard_value>  (454) 
93.5

>  <qudt_units>  (454) 
http://www.openphacts.org/units/Nanomolar

>  <target_tax_id>  (454) 
9606

>  <bao_label>  (454) 
single protein format

>  <published_units>  (454) 
nM

>  <pchembl_value>  (454) 
7.03

>  <published_type>  (454) 
IC50

>  <activity_comment>  (454) 
None

$$$$

     RDKit          

 34 37  0  0  0  0  0  0  0  0999 V2000
    0.0000    0.0000    0.0000 C   0  0  0  0  0  0  0  0  0  0  0  0
    0.0000    0.0000    0.0000 O   0  0  0  0  0  0  0  0  0  0  0  0
    0.0000    0.0000    0.0000 C   0  0  0  0  0  0  0  0  0  0  0  0
    0.0000    0.0000    0.0000 O   0  0  0  0  0  0  0  0  0  0  0  0
    0.0000    0.0000    0.0000 C   0  0  0  0  0  0  0  0  0  0  0  0
    0.0000    0.0000    0.0000 C   0  0  0  0  0  0  0  0  0  0  0  0
    0.0000    0.0000    0.0000 C   0  0  0  0  0  0  0  0  0  0  0  0
    0.0000    0.0000    0.0000 C   0  0  0  0  0  0  0  0  0  0  0  0
    0.0000    0.0000    0.0000 C   0  0  0  0  0  0  0  0  0  0  0  0
    0.0000    0.0000    0.0000 O   0  0  0  0  0  0  0  0  0  0  0  0
    0.0000    0.0000    0.0000 C   0  0  0  0  0  0  0  0  0  0  0  0
    0.0000    0.0000    0.0000 C   0  0  0  0  0  0  0  0  0  0  0  0
    0.0000    0.0000    0.0000 C   0  0  0  0  0  0  0  0  0  0  0  0
    0.0000    0.0000    0.0000 N   0  0  0  0  0  0  0  0  0  0  0  0
    0.0000    0.0000    0.0000 C   0  0  0  0  0  0  0  0  0  0  0  0
    0.0000    0.0000    0.0000 C   0  0  0  0  0  0  0  0  0  0  0  0
    0.0000    0.0000    0.0000 C   0  0  0  0  0  0  0  0  0  0  0  0
    0.0000    0.0000    0.0000 C   0  0  0  0  0  0  0  0  0  0  0  0
    0.0000    0.0000    0.0000 C   0  0  0  0  0  0  0  0  0  0  0  0
    0.0000    0.0000    0.0000 N   0  0  0  0  0  0  0  0  0  0  0  0
    0.0000    0.0000    0.0000 C   0  0  0  0  0  0  0  0  0  0  0  0
    0.0000    0.0000    0.0000 N   0  0  0  0  0  0  0  0  0  0  0  0
    0.0000    0.0000    0.0000 N   0  0  0  0  0  0  0  0  0  0  0  0
    0.0000    0.0000    0.0000 C   0  0  0  0  0  0  0  0  0  0  0  0
    0.0000    0.0000    0.0000 N   0  0  0  0  0  0  0  0  0  0  0  0
    0.0000    0.0000    0.0000 C   0  0  0  0  0  0  0  0  0  0  0  0
    0.0000    0.0000    0.0000 C   0  0  0  0  0  0  0  0  0  0  0  0
    0.0000    0.0000    0.0000 C   0  0  0  0  0  0  0  0  0  0  0  0
    0.0000    0.0000    0.0000 C   0  0  0  0  0  0  0  0  0  0  0  0
    0.0000    0.0000    0.0000 C   0  0  0  0  0  0  0  0  0  0  0  0
    0.0000    0.0000    0.0000 O   0  0  0  0  0  0  0  0  0  0  0  0
    0.0000    0.0000    0.0000 C   0  0  0  0  0  0  0  0  0  0  0  0
    0.0000    0.0000    0.0000 C   0  0  0  0  0  0  0  0  0  0  0  0
    0.0000    0.0000    0.0000 C   0  0  0  0  0  0  0  0  0  0  0  0
  1  2  1  0
  2  3  1  0
  3  4  2  0
  3  5  1  0
  5  6  2  0
  6  7  1  0
  7  8  2  0
  8  9  1  0
  9 10  1  0
 10 11  1  0
 11 12  2  0
 12 13  1  0
 13 14  1  0
 14 15  1  0
 15 16  1  0
 16 17  2  0
 17 18  1  0
 18 19  2  0
 19 20  1  0
 20 21  2  0
 21 22  1  0
 21 23  1  0
 23 24  2  0
 24 25  1  0
 24 26  1  0
 26 27  2  0
 13 28  2  0
 28 29  1  0
 29 30  2  0
 30 31  1  0
 31 32  1  0
  8 33  1  0
 33 34  2  0
 34  5  1  0
 30 11  1  0
 27 16  1  0
 26 19  1  0
M  END
>  <pIC50>  (455) 
6.76

>  <ChEMBL_ID>  (455) 
CHEMBL1165306

>  <document_journal>  (455) 
Bioorg. Med. Chem.

>  <bao_endpoint>  (455) 
BAO_0000190

>  <potential_duplicate>  (455) 
False

>  <uo_units>  (455) 
UO_0000065

>  <canonical_smiles>  (455) 
COC(=O)c1ccc(COc2cc(NCc3ccc4nc(N)nc(N)c4c3)ccc2OC)cc1

>  <parent_molecule_chembl_id>  (455) 
CHEMBL1165306

>  <assay_type>  (455) 
B

>  <src_id>  (455) 
1

>  <ligand_efficiency>  (455) 
{u'le': u'0.27', u'bei': u'14.71', u'sei': u'5.02', u'lle': u'3.01'}

>  <standard_flag>  (455) 
True

>  <molecule_chembl_id>  (455) 
CHEMBL1165306

>  <target_organism>  (455) 
Homo sapiens

>  <standard_units>  (455) 
nM

>  <record_id>  (455) 
919520

>  <document_chembl_id>  (455) 
CHEMBL1165926

>  <bao_format>  (455) 
BAO_0000357

>  <data_validity_description>  (455) 
None

>  <activity_id>  (455) 
3342545

>  <standard_type>  (455) 
IC50

>  <target_chembl_id>  (455) 
CHEMBL202

>  <data_validity_comment>  (455) 
None

>  <published_value>  (455) 
174.6

>  <document_year>  (455) 
2010

>  <target_pref_name>  (455) 
Dihydrofolate reductase

>  <assay_chembl_id>  (455) 
CHEMBL1167427

>  <standard_relation>  (455) 
=

>  <assay_description>  (455) 
Inhibition of human DHFR by spectrophotometric assay

>  <published_relation>  (455) 
=

>  <standard_value>  (455) 
174.6

>  <qudt_units>  (455) 
http://www.openphacts.org/units/Nanomolar

>  <target_tax_id>  (455) 
9606

>  <bao_label>  (455) 
single protein format

>  <published_units>  (455) 
nM

>  <pchembl_value>  (455) 
6.76

>  <published_type>  (455) 
IC50

>  <activity_comment>  (455) 
None

$$$$

     RDKit          

 34 36  0  0  0  0  0  0  0  0999 V2000
    0.0000    0.0000    0.0000 C   0  0  0  0  0  0  0  0  0  0  0  0
    0.0000    0.0000    0.0000 C   0  0  0  0  0  0  0  0  0  0  0  0
    0.0000    0.0000    0.0000 C   0  0  0  0  0  0  0  0  0  0  0  0
    0.0000    0.0000    0.0000 N   0  0  0  0  0  0  0  0  0  0  0  0
    0.0000    0.0000    0.0000 C   0  0  0  0  0  0  0  0  0  0  0  0
    0.0000    0.0000    0.0000 C   0  0  0  0  0  0  0  0  0  0  0  0
    0.0000    0.0000    0.0000 C   0  0  0  0  0  0  0  0  0  0  0  0
    0.0000    0.0000    0.0000 C   0  0  0  0  0  0  0  0  0  0  0  0
    0.0000    0.0000    0.0000 C   0  0  0  0  0  0  0  0  0  0  0  0
    0.0000    0.0000    0.0000 N   0  0  0  0  0  0  0  0  0  0  0  0
    0.0000    0.0000    0.0000 C   0  0  0  0  0  0  0  0  0  0  0  0
    0.0000    0.0000    0.0000 N   0  0  0  0  0  0  0  0  0  0  0  0
    0.0000    0.0000    0.0000 N   0  0  0  0  0  0  0  0  0  0  0  0
    0.0000    0.0000    0.0000 C   0  0  0  0  0  0  0  0  0  0  0  0
    0.0000    0.0000    0.0000 N   0  0  0  0  0  0  0  0  0  0  0  0
    0.0000    0.0000    0.0000 C   0  0  0  0  0  0  0  0  0  0  0  0
    0.0000    0.0000    0.0000 C   0  0  0  0  0  0  0  0  0  0  0  0
    0.0000    0.0000    0.0000 C   0  0  0  0  0  0  0  0  0  0  0  0
    0.0000    0.0000    0.0000 C   0  0  0  0  0  0  0  0  0  0  0  0
    0.0000    0.0000    0.0000 C   0  0  0  0  0  0  0  0  0  0  0  0
    0.0000    0.0000    0.0000 C   0  0  0  0  0  0  0  0  0  0  0  0
    0.0000    0.0000    0.0000 O   0  0  0  0  0  0  0  0  0  0  0  0
    0.0000    0.0000    0.0000 C   0  0  0  0  0  0  0  0  0  0  0  0
    0.0000    0.0000    0.0000 C   0  0  0  0  0  0  0  0  0  0  0  0
    0.0000    0.0000    0.0000 O   0  0  0  0  0  0  0  0  0  0  0  0
    0.0000    0.0000    0.0000 C   0  0  0  0  0  0  0  0  0  0  0  0
    0.0000    0.0000    0.0000 C   0  0  0  0  0  0  0  0  0  0  0  0
    0.0000    0.0000    0.0000 C   0  0  0  0  0  0  0  0  0  0  0  0
    0.0000    0.0000    0.0000 C   0  0  0  0  0  0  0  0  0  0  0  0
    0.0000    0.0000    0.0000 C   0  0  0  0  0  0  0  0  0  0  0  0
    0.0000    0.0000    0.0000 O   0  0  0  0  0  0  0  0  0  0  0  0
    0.0000    0.0000    0.0000 O   0  0  0  0  0  0  0  0  0  0  0  0
    0.0000    0.0000    0.0000 C   0  0  0  0  0  0  0  0  0  0  0  0
    0.0000    0.0000    0.0000 C   0  0  0  0  0  0  0  0  0  0  0  0
  1  2  1  0
  2  3  1  0
  3  4  1  0
  4  5  1  0
  5  6  1  0
  6  7  2  0
  7  8  1  0
  8  9  2  0
  9 10  1  0
 10 11  2  0
 11 12  1  0
 11 13  1  0
 13 14  2  0
 14 15  1  0
 14 16  1  0
 16 17  2  0
  4 18  1  0
 18 19  2  0
 19 20  1  0
 20 21  2  0
 21 22  1  0
 22 23  1  0
 21 24  1  0
 24 25  1  0
 25 26  1  0
 26 27  1  0
 27 28  1  0
 28 29  1  0
 29 30  1  0
 30 31  2  0
 30 32  1  0
 32 33  1  0
 24 34  2  0
 17  6  1  0
 16  9  1  0
 34 18  1  0
M  END
>  <pIC50>  (456) 
5.87

>  <ChEMBL_ID>  (456) 
CHEMBL1164234

>  <document_journal>  (456) 
Bioorg. Med. Chem.

>  <bao_endpoint>  (456) 
BAO_0000190

>  <potential_duplicate>  (456) 
False

>  <uo_units>  (456) 
UO_0000065

>  <canonical_smiles>  (456) 
CCCN(Cc1ccc2nc(N)nc(N)c2c1)c3ccc(OC)c(OCCCCC(=O)OC)c3

>  <parent_molecule_chembl_id>  (456) 
CHEMBL1164234

>  <assay_type>  (456) 
B

>  <src_id>  (456) 
1

>  <ligand_efficiency>  (456) 
{u'le': u'0.24', u'bei': u'12.56', u'sei': u'4.67', u'lle': u'1.6'}

>  <standard_flag>  (456) 
True

>  <molecule_chembl_id>  (456) 
CHEMBL1164234

>  <target_organism>  (456) 
Homo sapiens

>  <standard_units>  (456) 
nM

>  <record_id>  (456) 
919521

>  <document_chembl_id>  (456) 
CHEMBL1165926

>  <bao_format>  (456) 
BAO_0000357

>  <data_validity_description>  (456) 
None

>  <activity_id>  (456) 
3342546

>  <standard_type>  (456) 
IC50

>  <target_chembl_id>  (456) 
CHEMBL202

>  <data_validity_comment>  (456) 
None

>  <published_value>  (456) 
1338

>  <document_year>  (456) 
2010

>  <target_pref_name>  (456) 
Dihydrofolate reductase

>  <assay_chembl_id>  (456) 
CHEMBL1167427

>  <standard_relation>  (456) 
=

>  <assay_description>  (456) 
Inhibition of human DHFR by spectrophotometric assay

>  <published_relation>  (456) 
=

>  <standard_value>  (456) 
1338

>  <qudt_units>  (456) 
http://www.openphacts.org/units/Nanomolar

>  <target_tax_id>  (456) 
9606

>  <bao_label>  (456) 
single protein format

>  <published_units>  (456) 
nM

>  <pchembl_value>  (456) 
5.87

>  <published_type>  (456) 
IC50

>  <activity_comment>  (456) 
None

$$$$

     RDKit          

 29 31  0  0  0  0  0  0  0  0999 V2000
    0.0000    0.0000    0.0000 C   0  0  0  0  0  0  0  0  0  0  0  0
    0.0000    0.0000    0.0000 O   0  0  0  0  0  0  0  0  0  0  0  0
    0.0000    0.0000    0.0000 C   0  0  0  0  0  0  0  0  0  0  0  0
    0.0000    0.0000    0.0000 C   0  0  0  0  0  0  0  0  0  0  0  0
    0.0000    0.0000    0.0000 C   0  0  0  0  0  0  0  0  0  0  0  0
    0.0000    0.0000    0.0000 C   0  0  0  0  0  0  0  0  0  0  0  0
    0.0000    0.0000    0.0000 N   0  0  0  0  0  0  0  0  0  0  0  0
    0.0000    0.0000    0.0000 C   0  0  0  0  0  0  0  0  0  0  0  0
    0.0000    0.0000    0.0000 C   0  0  0  0  0  0  0  0  0  0  0  0
    0.0000    0.0000    0.0000 C   0  0  0  0  0  0  0  0  0  0  0  0
    0.0000    0.0000    0.0000 C   0  0  0  0  0  0  0  0  0  0  0  0
    0.0000    0.0000    0.0000 C   0  0  0  0  0  0  0  0  0  0  0  0
    0.0000    0.0000    0.0000 N   0  0  0  0  0  0  0  0  0  0  0  0
    0.0000    0.0000    0.0000 C   0  0  0  0  0  0  0  0  0  0  0  0
    0.0000    0.0000    0.0000 N   0  0  0  0  0  0  0  0  0  0  0  0
    0.0000    0.0000    0.0000 N   0  0  0  0  0  0  0  0  0  0  0  0
    0.0000    0.0000    0.0000 C   0  0  0  0  0  0  0  0  0  0  0  0
    0.0000    0.0000    0.0000 N   0  0  0  0  0  0  0  0  0  0  0  0
    0.0000    0.0000    0.0000 C   0  0  0  0  0  0  0  0  0  0  0  0
    0.0000    0.0000    0.0000 C   0  0  0  0  0  0  0  0  0  0  0  0
    0.0000    0.0000    0.0000 C   0  0  0  0  0  0  0  0  0  0  0  0
    0.0000    0.0000    0.0000 C   0  0  0  0  0  0  0  0  0  0  0  0
    0.0000    0.0000    0.0000 O   0  0  0  0  0  0  0  0  0  0  0  0
    0.0000    0.0000    0.0000 C   0  0  0  0  0  0  0  0  0  0  0  0
    0.0000    0.0000    0.0000 C   0  0  0  0  0  0  0  0  0  0  0  0
    0.0000    0.0000    0.0000 C   0  0  0  0  0  0  0  0  0  0  0  0
    0.0000    0.0000    0.0000 C   0  0  0  0  0  0  0  0  0  0  0  0
    0.0000    0.0000    0.0000 O   0  0  0  0  0  0  0  0  0  0  0  0
    0.0000    0.0000    0.0000 O   0  0  0  0  0  0  0  0  0  0  0  0
  1  2  1  0
  2  3  1  0
  3  4  2  0
  4  5  1  0
  5  6  2  0
  6  7  1  0
  7  8  1  0
  8  9  1  0
  9 10  2  0
 10 11  1  0
 11 12  2  0
 12 13  1  0
 13 14  2  0
 14 15  1  0
 14 16  1  0
 16 17  2  0
 17 18  1  0
 17 19  1  0
 19 20  2  0
  6 21  1  0
 21 22  2  0
 22 23  1  0
 23 24  1  0
 24 25  1  0
 25 26  1  0
 26 27  1  0
 27 28  2  0
 27 29  1  0
 22  3  1  0
 20  9  1  0
 19 12  1  0
M  END
>  <pIC50>  (457) 
6.45

>  <ChEMBL_ID>  (457) 
CHEMBL1164279

>  <document_journal>  (457) 
Bioorg. Med. Chem.

>  <bao_endpoint>  (457) 
BAO_0000190

>  <potential_duplicate>  (457) 
False

>  <uo_units>  (457) 
UO_0000065

>  <canonical_smiles>  (457) 
COc1ccc(NCc2ccc3nc(N)nc(N)c3c2)cc1OCCCC(=O)O

>  <parent_molecule_chembl_id>  (457) 
CHEMBL1164279

>  <assay_type>  (457) 
B

>  <src_id>  (457) 
1

>  <ligand_efficiency>  (457) 
{u'le': u'0.3', u'bei': u'16.22', u'sei': u'4.43', u'lle': u'4.08'}

>  <standard_flag>  (457) 
True

>  <molecule_chembl_id>  (457) 
CHEMBL1164279

>  <target_organism>  (457) 
Homo sapiens

>  <standard_units>  (457) 
nM

>  <record_id>  (457) 
919592

>  <document_chembl_id>  (457) 
CHEMBL1165926

>  <bao_format>  (457) 
BAO_0000357

>  <data_validity_description>  (457) 
None

>  <activity_id>  (457) 
3342547

>  <standard_type>  (457) 
IC50

>  <target_chembl_id>  (457) 
CHEMBL202

>  <data_validity_comment>  (457) 
None

>  <published_value>  (457) 
356.6

>  <document_year>  (457) 
2010

>  <target_pref_name>  (457) 
Dihydrofolate reductase

>  <assay_chembl_id>  (457) 
CHEMBL1167427

>  <standard_relation>  (457) 
=

>  <assay_description>  (457) 
Inhibition of human DHFR by spectrophotometric assay

>  <published_relation>  (457) 
=

>  <standard_value>  (457) 
356.6

>  <qudt_units>  (457) 
http://www.openphacts.org/units/Nanomolar

>  <target_tax_id>  (457) 
9606

>  <bao_label>  (457) 
single protein format

>  <published_units>  (457) 
nM

>  <pchembl_value>  (457) 
6.45

>  <published_type>  (457) 
IC50

>  <activity_comment>  (457) 
None

$$$$

     RDKit          

 35 38  0  0  0  0  0  0  0  0999 V2000
    0.0000    0.0000    0.0000 N   0  0  0  0  0  0  0  0  0  0  0  0
    0.0000    0.0000    0.0000 C   0  0  0  0  0  0  0  0  0  0  0  0
    0.0000    0.0000    0.0000 N   0  0  0  0  0  0  0  0  0  0  0  0
    0.0000    0.0000    0.0000 C   0  0  0  0  0  0  0  0  0  0  0  0
    0.0000    0.0000    0.0000 S   0  0  0  0  0  0  0  0  0  0  0  0
    0.0000    0.0000    0.0000 C   0  0  0  0  0  0  0  0  0  0  0  0
    0.0000    0.0000    0.0000 C   0  0  0  0  0  0  0  0  0  0  0  0
    0.0000    0.0000    0.0000 C   0  0  0  0  0  0  0  0  0  0  0  0
    0.0000    0.0000    0.0000 C   0  0  0  0  0  0  0  0  0  0  0  0
    0.0000    0.0000    0.0000 C   0  0  0  0  0  0  0  0  0  0  0  0
    0.0000    0.0000    0.0000 C   0  0  0  0  0  0  0  0  0  0  0  0
    0.0000    0.0000    0.0000 N   0  0  0  0  0  0  0  0  0  0  0  0
    0.0000    0.0000    0.0000 C   0  0  0  0  0  0  0  0  0  0  0  0
    0.0000    0.0000    0.0000 C   0  0  0  0  0  0  0  0  0  0  0  0
    0.0000    0.0000    0.0000 C   0  0  0  0  0  0  0  0  0  0  0  0
    0.0000    0.0000    0.0000 C   0  0  0  0  0  0  0  0  0  0  0  0
    0.0000    0.0000    0.0000 C   0  0  0  0  0  0  0  0  0  0  0  0
    0.0000    0.0000    0.0000 C   0  0  0  0  0  0  0  0  0  0  0  0
    0.0000    0.0000    0.0000 C   0  0  0  0  0  0  0  0  0  0  0  0
    0.0000    0.0000    0.0000 O   0  0  0  0  0  0  0  0  0  0  0  0
    0.0000    0.0000    0.0000 N   0  0  0  0  0  0  0  0  0  0  0  0
    0.0000    0.0000    0.0000 C   0  0  0  0  0  0  0  0  0  0  0  0
    0.0000    0.0000    0.0000 C   0  0  0  0  0  0  0  0  0  0  0  0
    0.0000    0.0000    0.0000 C   0  0  0  0  0  0  0  0  0  0  0  0
    0.0000    0.0000    0.0000 C   0  0  0  0  0  0  0  0  0  0  0  0
    0.0000    0.0000    0.0000 O   0  0  0  0  0  0  0  0  0  0  0  0
    0.0000    0.0000    0.0000 O   0  0  0  0  0  0  0  0  0  0  0  0
    0.0000    0.0000    0.0000 C   0  0  0  0  0  0  0  0  0  0  0  0
    0.0000    0.0000    0.0000 O   0  0  0  0  0  0  0  0  0  0  0  0
    0.0000    0.0000    0.0000 O   0  0  0  0  0  0  0  0  0  0  0  0
    0.0000    0.0000    0.0000 C   0  0  0  0  0  0  0  0  0  0  0  0
    0.0000    0.0000    0.0000 C   0  0  0  0  0  0  0  0  0  0  0  0
    0.0000    0.0000    0.0000 C   0  0  0  0  0  0  0  0  0  0  0  0
    0.0000    0.0000    0.0000 O   0  0  0  0  0  0  0  0  0  0  0  0
    0.0000    0.0000    0.0000 N   0  0  0  0  0  0  0  0  0  0  0  0
  1  2  1  0
  2  3  2  0
  3  4  1  0
  4  5  1  0
  5  6  1  0
  6  7  2  0
  7  8  1  0
  8  9  2  0
  9 10  1  0
 10 11  1  0
 11 12  1  0
 12 13  1  0
 13 14  2  0
 14 15  1  0
 15 16  2  0
 16 17  1  0
 17 18  2  0
 16 19  1  0
 19 20  2  0
 19 21  1  0
 21 22  1  0
 22 23  1  0
 23 24  1  0
 24 25  1  0
 25 26  2  0
 25 27  1  0
 22 28  1  0
 28 29  2  0
 28 30  1  0
 10 31  2  0
 31 32  1  0
 32 33  1  0
 33 34  2  0
 33 35  1  0
 35  2  1  0
 32  4  2  0
 31  6  1  0
 18 13  1  0
M  END
>  <pIC50>  (458) 
7.05

>  <ChEMBL_ID>  (458) 
CHEMBL1738741

>  <document_journal>  (458) 
Bioorg. Med. Chem.

>  <bao_endpoint>  (458) 
BAO_0000190

>  <potential_duplicate>  (458) 
False

>  <uo_units>  (458) 
UO_0000065

>  <canonical_smiles>  (458) 
NC1=Nc2sc3cccc(CNc4ccc(cc4)C(=O)N[C@@H](CCC(=O)O)C(=O)O)c3c2C(=O)N1

>  <parent_molecule_chembl_id>  (458) 
CHEMBL1738741

>  <assay_type>  (458) 
B

>  <src_id>  (458) 
1

>  <ligand_efficiency>  (458) 
{u'le': u'0.27', u'bei': u'14.22', u'sei': u'3.33', u'lle': u'5.18'}

>  <standard_flag>  (458) 
True

>  <molecule_chembl_id>  (458) 
CHEMBL1738741

>  <target_organism>  (458) 
Homo sapiens

>  <standard_units>  (458) 
nM

>  <record_id>  (458) 
1450764

>  <document_chembl_id>  (458) 
CHEMBL1817595

>  <bao_format>  (458) 
BAO_0000357

>  <data_validity_description>  (458) 
None

>  <activity_id>  (458) 
6329409

>  <standard_type>  (458) 
IC50

>  <target_chembl_id>  (458) 
CHEMBL202

>  <data_validity_comment>  (458) 
None

>  <published_value>  (458) 
0.09

>  <document_year>  (458) 
2011

>  <target_pref_name>  (458) 
Dihydrofolate reductase

>  <assay_chembl_id>  (458) 
CHEMBL1819662

>  <standard_relation>  (458) 
=

>  <assay_description>  (458) 
Inhibition of human DHFR by spectrophotometry

>  <published_relation>  (458) 
=

>  <standard_value>  (458) 
90

>  <qudt_units>  (458) 
http://www.openphacts.org/units/Nanomolar

>  <target_tax_id>  (458) 
9606

>  <bao_label>  (458) 
single protein format

>  <published_units>  (458) 
uM

>  <pchembl_value>  (458) 
7.05

>  <published_type>  (458) 
IC50

>  <activity_comment>  (458) 
None

$$$$

     RDKit          

 36 40  0  0  0  0  0  0  0  0999 V2000
    0.0000    0.0000    0.0000 N   0  0  0  0  0  0  0  0  0  0  0  0
    0.0000    0.0000    0.0000 C   0  0  0  0  0  0  0  0  0  0  0  0
    0.0000    0.0000    0.0000 N   0  0  0  0  0  0  0  0  0  0  0  0
    0.0000    0.0000    0.0000 C   0  0  0  0  0  0  0  0  0  0  0  0
    0.0000    0.0000    0.0000 S   0  0  0  0  0  0  0  0  0  0  0  0
    0.0000    0.0000    0.0000 C   0  0  0  0  0  0  0  0  0  0  0  0
    0.0000    0.0000    0.0000 C   0  0  0  0  0  0  0  0  0  0  0  0
    0.0000    0.0000    0.0000 C   0  0  0  0  0  0  0  0  0  0  0  0
    0.0000    0.0000    0.0000 C   0  0  0  0  0  0  0  0  0  0  0  0
    0.0000    0.0000    0.0000 C   0  0  0  0  0  0  0  0  0  0  0  0
    0.0000    0.0000    0.0000 C   0  0  0  0  0  0  0  0  0  0  0  0
    0.0000    0.0000    0.0000 N   0  0  0  0  0  0  0  0  0  0  0  0
    0.0000    0.0000    0.0000 C   0  0  0  0  0  0  0  0  0  0  0  0
    0.0000    0.0000    0.0000 C   0  0  0  0  0  0  0  0  0  0  0  0
    0.0000    0.0000    0.0000 C   0  0  0  0  0  0  0  0  0  0  0  0
    0.0000    0.0000    0.0000 C   0  0  0  0  0  0  0  0  0  0  0  0
    0.0000    0.0000    0.0000 C   0  0  0  0  0  0  0  0  0  0  0  0
    0.0000    0.0000    0.0000 O   0  0  0  0  0  0  0  0  0  0  0  0
    0.0000    0.0000    0.0000 N   0  0  0  0  0  0  0  0  0  0  0  0
    0.0000    0.0000    0.0000 C   0  0  0  0  0  0  0  0  0  0  0  0
    0.0000    0.0000    0.0000 C   0  0  0  0  0  0  0  0  0  0  0  0
    0.0000    0.0000    0.0000 C   0  0  0  0  0  0  0  0  0  0  0  0
    0.0000    0.0000    0.0000 C   0  0  0  0  0  0  0  0  0  0  0  0
    0.0000    0.0000    0.0000 C   0  0  0  0  0  0  0  0  0  0  0  0
    0.0000    0.0000    0.0000 C   0  0  0  0  0  0  0  0  0  0  0  0
    0.0000    0.0000    0.0000 C   0  0  0  0  0  0  0  0  0  0  0  0
    0.0000    0.0000    0.0000 O   0  0  0  0  0  0  0  0  0  0  0  0
    0.0000    0.0000    0.0000 O   0  0  0  0  0  0  0  0  0  0  0  0
    0.0000    0.0000    0.0000 C   0  0  0  0  0  0  0  0  0  0  0  0
    0.0000    0.0000    0.0000 O   0  0  0  0  0  0  0  0  0  0  0  0
    0.0000    0.0000    0.0000 O   0  0  0  0  0  0  0  0  0  0  0  0
    0.0000    0.0000    0.0000 C   0  0  0  0  0  0  0  0  0  0  0  0
    0.0000    0.0000    0.0000 C   0  0  0  0  0  0  0  0  0  0  0  0
    0.0000    0.0000    0.0000 C   0  0  0  0  0  0  0  0  0  0  0  0
    0.0000    0.0000    0.0000 O   0  0  0  0  0  0  0  0  0  0  0  0
    0.0000    0.0000    0.0000 N   0  0  0  0  0  0  0  0  0  0  0  0
  1  2  1  0
  2  3  2  0
  3  4  1  0
  4  5  1  0
  5  6  1  0
  6  7  2  0
  7  8  1  0
  8  9  2  0
  9 10  1  0
 10 11  1  0
 11 12  1  0
 12 13  1  0
 13 14  2  0
 14 15  1  0
 15 16  2  0
 16 17  1  0
 17 18  2  0
 17 19  1  0
 19 20  1  0
 20 21  1  0
 21 22  2  0
 19 23  1  0
 23 24  1  0
 24 25  1  0
 25 26  1  0
 26 27  2  0
 26 28  1  0
 23 29  1  0
 29 30  2  0
 29 31  1  0
 10 32  2  0
 32 33  1  0
 33 34  1  0
 34 35  2  0
 34 36  1  0
 36  2  1  0
 33  4  2  0
 32  6  1  0
 22 13  1  0
 21 16  1  0
M  END
>  <pIC50>  (459) 
7.0

>  <ChEMBL_ID>  (459) 
CHEMBL1738740

>  <document_journal>  (459) 
Bioorg. Med. Chem.

>  <bao_endpoint>  (459) 
BAO_0000190

>  <potential_duplicate>  (459) 
False

>  <uo_units>  (459) 
UO_0000065

>  <canonical_smiles>  (459) 
NC1=Nc2sc3cccc(CNc4ccc5C(=O)N(Cc5c4)[C@@H](CCC(=O)O)C(=O)O)c3c2C(=O)N1

>  <parent_molecule_chembl_id>  (459) 
CHEMBL1738740

>  <assay_type>  (459) 
B

>  <src_id>  (459) 
1

>  <ligand_efficiency>  (459) 
{u'le': u'0.27', u'bei': u'13.79', u'sei': u'3.45', u'lle': u'5.17'}

>  <standard_flag>  (459) 
True

>  <molecule_chembl_id>  (459) 
CHEMBL1738740

>  <target_organism>  (459) 
Homo sapiens

>  <standard_units>  (459) 
nM

>  <record_id>  (459) 
1450765

>  <document_chembl_id>  (459) 
CHEMBL1817595

>  <bao_format>  (459) 
BAO_0000357

>  <data_validity_description>  (459) 
None

>  <activity_id>  (459) 
6329410

>  <standard_type>  (459) 
IC50

>  <target_chembl_id>  (459) 
CHEMBL202

>  <data_validity_comment>  (459) 
None

>  <published_value>  (459) 
0.1

>  <document_year>  (459) 
2011

>  <target_pref_name>  (459) 
Dihydrofolate reductase

>  <assay_chembl_id>  (459) 
CHEMBL1819662

>  <standard_relation>  (459) 
=

>  <assay_description>  (459) 
Inhibition of human DHFR by spectrophotometry

>  <published_relation>  (459) 
=

>  <standard_value>  (459) 
100

>  <qudt_units>  (459) 
http://www.openphacts.org/units/Nanomolar

>  <target_tax_id>  (459) 
9606

>  <bao_label>  (459) 
single protein format

>  <published_units>  (459) 
uM

>  <pchembl_value>  (459) 
7

>  <published_type>  (459) 
IC50

>  <activity_comment>  (459) 
None

$$$$

     RDKit          

 18 19  0  0  0  0  0  0  0  0999 V2000
    0.0000    0.0000    0.0000 C   0  0  0  0  0  0  0  0  0  0  0  0
    0.0000    0.0000    0.0000 C   0  0  0  0  0  0  0  0  0  0  0  0
    0.0000    0.0000    0.0000 C   0  0  0  0  0  0  0  0  0  0  0  0
    0.0000    0.0000    0.0000 N   0  0  0  0  0  0  0  0  0  0  0  0
    0.0000    0.0000    0.0000 C   0  0  0  0  0  0  0  0  0  0  0  0
    0.0000    0.0000    0.0000 N   0  0  0  0  0  0  0  0  0  0  0  0
    0.0000    0.0000    0.0000 N   0  0  0  0  0  0  0  0  0  0  0  0
    0.0000    0.0000    0.0000 C   0  0  0  0  0  0  0  0  0  0  0  0
    0.0000    0.0000    0.0000 N   0  0  0  0  0  0  0  0  0  0  0  0
    0.0000    0.0000    0.0000 N   0  0  0  0  0  0  0  0  0  0  0  0
    0.0000    0.0000    0.0000 C   0  0  0  0  0  0  0  0  0  0  0  0
    0.0000    0.0000    0.0000 C   0  0  0  0  0  0  0  0  0  0  0  0
    0.0000    0.0000    0.0000 C   0  0  0  0  0  0  0  0  0  0  0  0
    0.0000    0.0000    0.0000 C   0  0  0  0  0  0  0  0  0  0  0  0
    0.0000    0.0000    0.0000 C   0  0  0  0  0  0  0  0  0  0  0  0
    0.0000    0.0000    0.0000 F   0  0  0  0  0  0  0  0  0  0  0  0
    0.0000    0.0000    0.0000 C   0  0  0  0  0  0  0  0  0  0  0  0
    0.0000    0.0000    0.0000 C   0  0  0  0  0  0  0  0  0  0  0  0
  1  2  1  0
  2  3  1  0
  2  4  1  0
  4  5  2  0
  5  6  1  0
  5  7  1  0
  7  8  2  0
  8  9  1  0
  8 10  1  0
 10 11  1  0
 11 12  1  0
 12 13  2  0
 13 14  1  0
 14 15  2  0
 15 16  1  0
 15 17  1  0
 17 18  2  0
 10  2  1  0
 18 12  1  0
M  END
>  <pIC50>  (460) 
4.66

>  <ChEMBL_ID>  (460) 
CHEMBL1824519

>  <document_journal>  (460) 
Bioorg. Med. Chem. Lett.

>  <bao_endpoint>  (460) 
BAO_0000190

>  <potential_duplicate>  (460) 
False

>  <uo_units>  (460) 
UO_0000065

>  <canonical_smiles>  (460) 
Cl.CC1(C)N=C(N)N=C(N)N1Cc2ccc(F)cc2

>  <parent_molecule_chembl_id>  (460) 
CHEMBL1852382

>  <assay_type>  (460) 
B

>  <src_id>  (460) 
1

>  <ligand_efficiency>  (460) 
{u'le': u'0.35', u'bei': u'18.7', u'sei': u'5.83', u'lle': u'3.49'}

>  <standard_flag>  (460) 
True

>  <molecule_chembl_id>  (460) 
CHEMBL1824519

>  <target_organism>  (460) 
Homo sapiens

>  <standard_units>  (460) 
nM

>  <record_id>  (460) 
1455951

>  <document_chembl_id>  (460) 
CHEMBL1821611

>  <bao_format>  (460) 
BAO_0000357

>  <data_validity_description>  (460) 
None

>  <activity_id>  (460) 
6355098

>  <standard_type>  (460) 
IC50

>  <target_chembl_id>  (460) 
CHEMBL202

>  <data_validity_comment>  (460) 
None

>  <published_value>  (460) 
21.8

>  <document_year>  (460) 
2011

>  <target_pref_name>  (460) 
Dihydrofolate reductase

>  <assay_chembl_id>  (460) 
CHEMBL1826162

>  <standard_relation>  (460) 
=

>  <assay_description>  (460) 
Inhibition of human DHFR assessed as NADPH consumption for conversion of dihydrofolic acid to tetrahydrofolic acid after 6 mins every 5 sec by UV-Visible Spectrophotometer method

>  <published_relation>  (460) 
=

>  <standard_value>  (460) 
21800

>  <qudt_units>  (460) 
http://www.openphacts.org/units/Nanomolar

>  <target_tax_id>  (460) 
9606

>  <bao_label>  (460) 
single protein format

>  <published_units>  (460) 
uM

>  <pchembl_value>  (460) 
4.66

>  <published_type>  (460) 
IC50

>  <activity_comment>  (460) 
None

$$$$

     RDKit          

 18 19  0  0  0  0  0  0  0  0999 V2000
    0.0000    0.0000    0.0000 C   0  0  0  0  0  0  0  0  0  0  0  0
    0.0000    0.0000    0.0000 C   0  0  0  0  0  0  0  0  0  0  0  0
    0.0000    0.0000    0.0000 C   0  0  0  0  0  0  0  0  0  0  0  0
    0.0000    0.0000    0.0000 N   0  0  0  0  0  0  0  0  0  0  0  0
    0.0000    0.0000    0.0000 C   0  0  0  0  0  0  0  0  0  0  0  0
    0.0000    0.0000    0.0000 N   0  0  0  0  0  0  0  0  0  0  0  0
    0.0000    0.0000    0.0000 N   0  0  0  0  0  0  0  0  0  0  0  0
    0.0000    0.0000    0.0000 C   0  0  0  0  0  0  0  0  0  0  0  0
    0.0000    0.0000    0.0000 N   0  0  0  0  0  0  0  0  0  0  0  0
    0.0000    0.0000    0.0000 N   0  0  0  0  0  0  0  0  0  0  0  0
    0.0000    0.0000    0.0000 O   0  0  0  0  0  0  0  0  0  0  0  0
    0.0000    0.0000    0.0000 C   0  0  0  0  0  0  0  0  0  0  0  0
    0.0000    0.0000    0.0000 C   0  0  0  0  0  0  0  0  0  0  0  0
    0.0000    0.0000    0.0000 C   0  0  0  0  0  0  0  0  0  0  0  0
    0.0000    0.0000    0.0000 C   0  0  0  0  0  0  0  0  0  0  0  0
    0.0000    0.0000    0.0000 C   0  0  0  0  0  0  0  0  0  0  0  0
    0.0000    0.0000    0.0000 C   0  0  0  0  0  0  0  0  0  0  0  0
    0.0000    0.0000    0.0000 C   0  0  0  0  0  0  0  0  0  0  0  0
  1  2  1  0
  2  3  1  0
  2  4  1  0
  4  5  2  0
  5  6  1  0
  5  7  1  0
  7  8  2  0
  8  9  1  0
  8 10  1  0
 10 11  1  0
 11 12  1  0
 12 13  1  0
 13 14  2  0
 14 15  1  0
 15 16  2  0
 16 17  1  0
 17 18  2  0
 10  2  1  0
 18 13  1  0
M  END
>  <pIC50>  (461) 
6.765

>  <ChEMBL_ID>  (461) 
CHEMBL1824770

>  <document_journal>  (461) 
Bioorg. Med. Chem. Lett.

>  <bao_endpoint>  (461) 
BAO_0000190

>  <potential_duplicate>  (461) 
False

>  <uo_units>  (461) 
UO_0000065

>  <canonical_smiles>  (461) 
Cl.CC1(C)N=C(N)N=C(N)N1OCc2ccccc2

>  <parent_molecule_chembl_id>  (461) 
CHEMBL1852675

>  <assay_type>  (461) 
B

>  <src_id>  (461) 
1

>  <ligand_efficiency>  (461) 
{u'le': u'0.54', u'bei': u'28.96', u'sei': u'8.03', u'lle': u'6.35'}

>  <standard_flag>  (461) 
True

>  <molecule_chembl_id>  (461) 
CHEMBL1824770

>  <target_organism>  (461) 
Homo sapiens

>  <standard_units>  (461) 
nM

>  <record_id>  (461) 
1456227

>  <document_chembl_id>  (461) 
CHEMBL1821611

>  <bao_format>  (461) 
BAO_0000357

>  <data_validity_description>  (461) 
None

>  <activity_id>  (461) 
6355170

>  <standard_type>  (461) 
IC50

>  <target_chembl_id>  (461) 
CHEMBL202

>  <data_validity_comment>  (461) 
None

>  <published_value>  (461) 
0.069

>  <document_year>  (461) 
2011

>  <target_pref_name>  (461) 
Dihydrofolate reductase

>  <assay_chembl_id>  (461) 
CHEMBL1826162

>  <standard_relation>  (461) 
=

>  <assay_description>  (461) 
Inhibition of human DHFR assessed as NADPH consumption for conversion of dihydrofolic acid to tetrahydrofolic acid after 6 mins every 5 sec by UV-Visible Spectrophotometer method

>  <published_relation>  (461) 
=

>  <standard_value>  (461) 
69

>  <qudt_units>  (461) 
http://www.openphacts.org/units/Nanomolar

>  <target_tax_id>  (461) 
9606

>  <bao_label>  (461) 
single protein format

>  <published_units>  (461) 
uM

>  <pchembl_value>  (461) 
7.16

>  <published_type>  (461) 
IC50

>  <activity_comment>  (461) 
None

$$$$

     RDKit          

 19 20  0  0  0  0  0  0  0  0999 V2000
    0.0000    0.0000    0.0000 C   0  0  0  0  0  0  0  0  0  0  0  0
    0.0000    0.0000    0.0000 C   0  0  0  0  0  0  0  0  0  0  0  0
    0.0000    0.0000    0.0000 C   0  0  0  0  0  0  0  0  0  0  0  0
    0.0000    0.0000    0.0000 C   0  0  0  0  0  0  0  0  0  0  0  0
    0.0000    0.0000    0.0000 N   0  0  0  0  0  0  0  0  0  0  0  0
    0.0000    0.0000    0.0000 C   0  0  0  0  0  0  0  0  0  0  0  0
    0.0000    0.0000    0.0000 N   0  0  0  0  0  0  0  0  0  0  0  0
    0.0000    0.0000    0.0000 N   0  0  0  0  0  0  0  0  0  0  0  0
    0.0000    0.0000    0.0000 C   0  0  0  0  0  0  0  0  0  0  0  0
    0.0000    0.0000    0.0000 N   0  0  0  0  0  0  0  0  0  0  0  0
    0.0000    0.0000    0.0000 N   0  0  0  0  0  0  0  0  0  0  0  0
    0.0000    0.0000    0.0000 O   0  0  0  0  0  0  0  0  0  0  0  0
    0.0000    0.0000    0.0000 C   0  0  0  0  0  0  0  0  0  0  0  0
    0.0000    0.0000    0.0000 C   0  0  0  0  0  0  0  0  0  0  0  0
    0.0000    0.0000    0.0000 C   0  0  0  0  0  0  0  0  0  0  0  0
    0.0000    0.0000    0.0000 C   0  0  0  0  0  0  0  0  0  0  0  0
    0.0000    0.0000    0.0000 C   0  0  0  0  0  0  0  0  0  0  0  0
    0.0000    0.0000    0.0000 C   0  0  0  0  0  0  0  0  0  0  0  0
    0.0000    0.0000    0.0000 C   0  0  0  0  0  0  0  0  0  0  0  0
  1  2  1  0
  2  3  1  0
  3  4  1  0
  3  5  1  0
  5  6  2  0
  6  7  1  0
  6  8  1  0
  8  9  2  0
  9 10  1  0
  9 11  1  0
 11 12  1  0
 12 13  1  0
 13 14  1  0
 14 15  2  0
 15 16  1  0
 16 17  2  0
 17 18  1  0
 18 19  2  0
 11  3  1  0
 19 14  1  0
M  END
>  <pIC50>  (462) 
6.81

>  <ChEMBL_ID>  (462) 
CHEMBL1824771

>  <document_journal>  (462) 
Bioorg. Med. Chem. Lett.

>  <bao_endpoint>  (462) 
BAO_0000190

>  <potential_duplicate>  (462) 
False

>  <uo_units>  (462) 
UO_0000065

>  <canonical_smiles>  (462) 
Cl.CCC1(C)N=C(N)N=C(N)N1OCc2ccccc2

>  <parent_molecule_chembl_id>  (462) 
CHEMBL1852457

>  <assay_type>  (462) 
B

>  <src_id>  (462) 
1

>  <ligand_efficiency>  (462) 
{u'le': u'0.49', u'bei': u'26.06', u'sei': u'7.63', u'lle': u'5.34'}

>  <standard_flag>  (462) 
True

>  <molecule_chembl_id>  (462) 
CHEMBL1824771

>  <target_organism>  (462) 
Homo sapiens

>  <standard_units>  (462) 
nM

>  <record_id>  (462) 
1456228

>  <document_chembl_id>  (462) 
CHEMBL1821611

>  <bao_format>  (462) 
BAO_0000357

>  <data_validity_description>  (462) 
None

>  <activity_id>  (462) 
6355171

>  <standard_type>  (462) 
IC50

>  <target_chembl_id>  (462) 
CHEMBL202

>  <data_validity_comment>  (462) 
None

>  <published_value>  (462) 
0.155

>  <document_year>  (462) 
2011

>  <target_pref_name>  (462) 
Dihydrofolate reductase

>  <assay_chembl_id>  (462) 
CHEMBL1826162

>  <standard_relation>  (462) 
=

>  <assay_description>  (462) 
Inhibition of human DHFR assessed as NADPH consumption for conversion of dihydrofolic acid to tetrahydrofolic acid after 6 mins every 5 sec by UV-Visible Spectrophotometer method

>  <published_relation>  (462) 
=

>  <standard_value>  (462) 
155

>  <qudt_units>  (462) 
http://www.openphacts.org/units/Nanomolar

>  <target_tax_id>  (462) 
9606

>  <bao_label>  (462) 
single protein format

>  <published_units>  (462) 
uM

>  <pchembl_value>  (462) 
6.81

>  <published_type>  (462) 
IC50

>  <activity_comment>  (462) 
None

$$$$

     RDKit          

 19 21  0  0  0  0  0  0  0  0999 V2000
    0.0000    0.0000    0.0000 N   0  0  0  0  0  0  0  0  0  0  0  0
    0.0000    0.0000    0.0000 C   0  0  0  0  0  0  0  0  0  0  0  0
    0.0000    0.0000    0.0000 N   0  0  0  0  0  0  0  0  0  0  0  0
    0.0000    0.0000    0.0000 C   0  0  0  0  0  0  0  0  0  0  0  0
    0.0000    0.0000    0.0000 C   0  0  0  0  0  0  0  0  0  0  0  0
    0.0000    0.0000    0.0000 C   0  0  0  0  0  0  0  0  0  0  0  0
    0.0000    0.0000    0.0000 C   0  0  0  0  0  0  0  0  0  0  0  0
    0.0000    0.0000    0.0000 N   0  0  0  0  0  0  0  0  0  0  0  0
    0.0000    0.0000    0.0000 O   0  0  0  0  0  0  0  0  0  0  0  0
    0.0000    0.0000    0.0000 C   0  0  0  0  0  0  0  0  0  0  0  0
    0.0000    0.0000    0.0000 C   0  0  0  0  0  0  0  0  0  0  0  0
    0.0000    0.0000    0.0000 C   0  0  0  0  0  0  0  0  0  0  0  0
    0.0000    0.0000    0.0000 C   0  0  0  0  0  0  0  0  0  0  0  0
    0.0000    0.0000    0.0000 C   0  0  0  0  0  0  0  0  0  0  0  0
    0.0000    0.0000    0.0000 C   0  0  0  0  0  0  0  0  0  0  0  0
    0.0000    0.0000    0.0000 C   0  0  0  0  0  0  0  0  0  0  0  0
    0.0000    0.0000    0.0000 C   0  0  0  0  0  0  0  0  0  0  0  0
    0.0000    0.0000    0.0000 N   0  0  0  0  0  0  0  0  0  0  0  0
    0.0000    0.0000    0.0000 N   0  0  0  0  0  0  0  0  0  0  0  0
  1  2  1  0
  2  3  2  0
  3  4  1  0
  4  5  1  0
  5  6  1  0
  6  7  1  0
  4  8  1  0
  8  9  1  0
  9 10  1  0
 10 11  1  0
 11 12  2  0
 12 13  1  0
 13 14  2  0
 14 15  1  0
 15 16  2  0
  8 17  1  0
 17 18  2  0
 17 19  1  0
 18  2  1  0
  7  5  1  0
 16 11  1  0
M  END
>  <pIC50>  (463) 
6.26

>  <ChEMBL_ID>  (463) 
CHEMBL1824772

>  <document_journal>  (463) 
Bioorg. Med. Chem. Lett.

>  <bao_endpoint>  (463) 
BAO_0000190

>  <potential_duplicate>  (463) 
False

>  <uo_units>  (463) 
UO_0000065

>  <canonical_smiles>  (463) 
Cl.NC1=NC(C2CC2)N(OCc3ccccc3)C(=N1)N

>  <parent_molecule_chembl_id>  (463) 
CHEMBL1852459

>  <assay_type>  (463) 
B

>  <src_id>  (463) 
1

>  <ligand_efficiency>  (463) 
{u'le': u'0.45', u'bei': u'24.15', u'sei': u'7.02', u'lle': u'4.66'}

>  <standard_flag>  (463) 
True

>  <molecule_chembl_id>  (463) 
CHEMBL1824772

>  <target_organism>  (463) 
Homo sapiens

>  <standard_units>  (463) 
nM

>  <record_id>  (463) 
1456229

>  <document_chembl_id>  (463) 
CHEMBL1821611

>  <bao_format>  (463) 
BAO_0000357

>  <data_validity_description>  (463) 
None

>  <activity_id>  (463) 
6355172

>  <standard_type>  (463) 
IC50

>  <target_chembl_id>  (463) 
CHEMBL202

>  <data_validity_comment>  (463) 
None

>  <published_value>  (463) 
0.548

>  <document_year>  (463) 
2011

>  <target_pref_name>  (463) 
Dihydrofolate reductase

>  <assay_chembl_id>  (463) 
CHEMBL1826162

>  <standard_relation>  (463) 
=

>  <assay_description>  (463) 
Inhibition of human DHFR assessed as NADPH consumption for conversion of dihydrofolic acid to tetrahydrofolic acid after 6 mins every 5 sec by UV-Visible Spectrophotometer method

>  <published_relation>  (463) 
=

>  <standard_value>  (463) 
548

>  <qudt_units>  (463) 
http://www.openphacts.org/units/Nanomolar

>  <target_tax_id>  (463) 
9606

>  <bao_label>  (463) 
single protein format

>  <published_units>  (463) 
uM

>  <pchembl_value>  (463) 
6.26

>  <published_type>  (463) 
IC50

>  <activity_comment>  (463) 
None

$$$$

     RDKit          

 19 21  0  0  0  0  0  0  0  0999 V2000
    0.0000    0.0000    0.0000 N   0  0  0  0  0  0  0  0  0  0  0  0
    0.0000    0.0000    0.0000 C   0  0  0  0  0  0  0  0  0  0  0  0
    0.0000    0.0000    0.0000 N   0  0  0  0  0  0  0  0  0  0  0  0
    0.0000    0.0000    0.0000 C   0  0  0  0  0  0  0  0  0  0  0  0
    0.0000    0.0000    0.0000 C   0  0  0  0  0  0  0  0  0  0  0  0
    0.0000    0.0000    0.0000 C   0  0  0  0  0  0  0  0  0  0  0  0
    0.0000    0.0000    0.0000 C   0  0  0  0  0  0  0  0  0  0  0  0
    0.0000    0.0000    0.0000 N   0  0  0  0  0  0  0  0  0  0  0  0
    0.0000    0.0000    0.0000 O   0  0  0  0  0  0  0  0  0  0  0  0
    0.0000    0.0000    0.0000 C   0  0  0  0  0  0  0  0  0  0  0  0
    0.0000    0.0000    0.0000 C   0  0  0  0  0  0  0  0  0  0  0  0
    0.0000    0.0000    0.0000 C   0  0  0  0  0  0  0  0  0  0  0  0
    0.0000    0.0000    0.0000 C   0  0  0  0  0  0  0  0  0  0  0  0
    0.0000    0.0000    0.0000 C   0  0  0  0  0  0  0  0  0  0  0  0
    0.0000    0.0000    0.0000 C   0  0  0  0  0  0  0  0  0  0  0  0
    0.0000    0.0000    0.0000 C   0  0  0  0  0  0  0  0  0  0  0  0
    0.0000    0.0000    0.0000 C   0  0  0  0  0  0  0  0  0  0  0  0
    0.0000    0.0000    0.0000 N   0  0  0  0  0  0  0  0  0  0  0  0
    0.0000    0.0000    0.0000 N   0  0  0  0  0  0  0  0  0  0  0  0
  1  2  1  0
  2  3  2  0
  3  4  1  0
  4  5  1  0
  5  6  1  0
  6  7  1  0
  4  8  1  0
  8  9  1  0
  9 10  1  0
 10 11  1  0
 11 12  2  0
 12 13  1  0
 13 14  2  0
 14 15  1  0
 15 16  2  0
  8 17  1  0
 17 18  2  0
 17 19  1  0
 18  2  1  0
  7  4  1  0
 16 11  1  0
M  END
>  <pIC50>  (464) 
6.87

>  <ChEMBL_ID>  (464) 
CHEMBL1824773

>  <document_journal>  (464) 
Bioorg. Med. Chem. Lett.

>  <bao_endpoint>  (464) 
BAO_0000190

>  <potential_duplicate>  (464) 
False

>  <uo_units>  (464) 
UO_0000065

>  <canonical_smiles>  (464) 
Cl.NC1=NC2(CCC2)N(OCc3ccccc3)C(=N1)N

>  <parent_molecule_chembl_id>  (464) 
CHEMBL1852456

>  <assay_type>  (464) 
B

>  <src_id>  (464) 
1

>  <ligand_efficiency>  (464) 
{u'le': u'0.49', u'bei': u'26.5', u'sei': u'7.7', u'lle': u'5.58'}

>  <standard_flag>  (464) 
True

>  <molecule_chembl_id>  (464) 
CHEMBL1824773

>  <target_organism>  (464) 
Homo sapiens

>  <standard_units>  (464) 
nM

>  <record_id>  (464) 
1456230

>  <document_chembl_id>  (464) 
CHEMBL1821611

>  <bao_format>  (464) 
BAO_0000357

>  <data_validity_description>  (464) 
None

>  <activity_id>  (464) 
6355173

>  <standard_type>  (464) 
IC50

>  <target_chembl_id>  (464) 
CHEMBL202

>  <data_validity_comment>  (464) 
None

>  <published_value>  (464) 
0.134

>  <document_year>  (464) 
2011

>  <target_pref_name>  (464) 
Dihydrofolate reductase

>  <assay_chembl_id>  (464) 
CHEMBL1826162

>  <standard_relation>  (464) 
=

>  <assay_description>  (464) 
Inhibition of human DHFR assessed as NADPH consumption for conversion of dihydrofolic acid to tetrahydrofolic acid after 6 mins every 5 sec by UV-Visible Spectrophotometer method

>  <published_relation>  (464) 
=

>  <standard_value>  (464) 
134

>  <qudt_units>  (464) 
http://www.openphacts.org/units/Nanomolar

>  <target_tax_id>  (464) 
9606

>  <bao_label>  (464) 
single protein format

>  <published_units>  (464) 
uM

>  <pchembl_value>  (464) 
6.87

>  <published_type>  (464) 
IC50

>  <activity_comment>  (464) 
None

$$$$

     RDKit          

 20 22  0  0  0  0  0  0  0  0999 V2000
    0.0000    0.0000    0.0000 N   0  0  0  0  0  0  0  0  0  0  0  0
    0.0000    0.0000    0.0000 C   0  0  0  0  0  0  0  0  0  0  0  0
    0.0000    0.0000    0.0000 N   0  0  0  0  0  0  0  0  0  0  0  0
    0.0000    0.0000    0.0000 C   0  0  0  0  0  0  0  0  0  0  0  0
    0.0000    0.0000    0.0000 C   0  0  0  0  0  0  0  0  0  0  0  0
    0.0000    0.0000    0.0000 C   0  0  0  0  0  0  0  0  0  0  0  0
    0.0000    0.0000    0.0000 C   0  0  0  0  0  0  0  0  0  0  0  0
    0.0000    0.0000    0.0000 C   0  0  0  0  0  0  0  0  0  0  0  0
    0.0000    0.0000    0.0000 N   0  0  0  0  0  0  0  0  0  0  0  0
    0.0000    0.0000    0.0000 O   0  0  0  0  0  0  0  0  0  0  0  0
    0.0000    0.0000    0.0000 C   0  0  0  0  0  0  0  0  0  0  0  0
    0.0000    0.0000    0.0000 C   0  0  0  0  0  0  0  0  0  0  0  0
    0.0000    0.0000    0.0000 C   0  0  0  0  0  0  0  0  0  0  0  0
    0.0000    0.0000    0.0000 C   0  0  0  0  0  0  0  0  0  0  0  0
    0.0000    0.0000    0.0000 C   0  0  0  0  0  0  0  0  0  0  0  0
    0.0000    0.0000    0.0000 C   0  0  0  0  0  0  0  0  0  0  0  0
    0.0000    0.0000    0.0000 C   0  0  0  0  0  0  0  0  0  0  0  0
    0.0000    0.0000    0.0000 C   0  0  0  0  0  0  0  0  0  0  0  0
    0.0000    0.0000    0.0000 N   0  0  0  0  0  0  0  0  0  0  0  0
    0.0000    0.0000    0.0000 N   0  0  0  0  0  0  0  0  0  0  0  0
  1  2  1  0
  2  3  2  0
  3  4  1  0
  4  5  1  0
  5  6  1  0
  6  7  1  0
  7  8  1  0
  4  9  1  0
  9 10  1  0
 10 11  1  0
 11 12  1  0
 12 13  2  0
 13 14  1  0
 14 15  2  0
 15 16  1  0
 16 17  2  0
  9 18  1  0
 18 19  2  0
 18 20  1  0
 19  2  1  0
  8  4  1  0
 17 12  1  0
M  END
>  <pIC50>  (465) 
6.76

>  <ChEMBL_ID>  (465) 
CHEMBL1824774

>  <document_journal>  (465) 
Bioorg. Med. Chem. Lett.

>  <bao_endpoint>  (465) 
BAO_0000190

>  <potential_duplicate>  (465) 
False

>  <uo_units>  (465) 
UO_0000065

>  <canonical_smiles>  (465) 
NC1=NC2(CCCC2)N(OCc3ccccc3)C(=N1)N

>  <parent_molecule_chembl_id>  (465) 
CHEMBL1824774

>  <assay_type>  (465) 
B

>  <src_id>  (465) 
1

>  <ligand_efficiency>  (465) 
{u'le': u'0.46', u'bei': u'24.74', u'sei': u'7.58', u'lle': u'5.01'}

>  <standard_flag>  (465) 
True

>  <molecule_chembl_id>  (465) 
CHEMBL1824774

>  <target_organism>  (465) 
Homo sapiens

>  <standard_units>  (465) 
nM

>  <record_id>  (465) 
1456231

>  <document_chembl_id>  (465) 
CHEMBL1821611

>  <bao_format>  (465) 
BAO_0000357

>  <data_validity_description>  (465) 
None

>  <activity_id>  (465) 
6355174

>  <standard_type>  (465) 
IC50

>  <target_chembl_id>  (465) 
CHEMBL202

>  <data_validity_comment>  (465) 
None

>  <published_value>  (465) 
0.173

>  <document_year>  (465) 
2011

>  <target_pref_name>  (465) 
Dihydrofolate reductase

>  <assay_chembl_id>  (465) 
CHEMBL1826162

>  <standard_relation>  (465) 
=

>  <assay_description>  (465) 
Inhibition of human DHFR assessed as NADPH consumption for conversion of dihydrofolic acid to tetrahydrofolic acid after 6 mins every 5 sec by UV-Visible Spectrophotometer method

>  <published_relation>  (465) 
=

>  <standard_value>  (465) 
173

>  <qudt_units>  (465) 
http://www.openphacts.org/units/Nanomolar

>  <target_tax_id>  (465) 
9606

>  <bao_label>  (465) 
single protein format

>  <published_units>  (465) 
uM

>  <pchembl_value>  (465) 
6.76

>  <published_type>  (465) 
IC50

>  <activity_comment>  (465) 
None

$$$$

     RDKit          

 21 23  0  0  0  0  0  0  0  0999 V2000
    0.0000    0.0000    0.0000 N   0  0  0  0  0  0  0  0  0  0  0  0
    0.0000    0.0000    0.0000 C   0  0  0  0  0  0  0  0  0  0  0  0
    0.0000    0.0000    0.0000 N   0  0  0  0  0  0  0  0  0  0  0  0
    0.0000    0.0000    0.0000 C   0  0  0  0  0  0  0  0  0  0  0  0
    0.0000    0.0000    0.0000 C   0  0  0  0  0  0  0  0  0  0  0  0
    0.0000    0.0000    0.0000 C   0  0  0  0  0  0  0  0  0  0  0  0
    0.0000    0.0000    0.0000 C   0  0  0  0  0  0  0  0  0  0  0  0
    0.0000    0.0000    0.0000 C   0  0  0  0  0  0  0  0  0  0  0  0
    0.0000    0.0000    0.0000 C   0  0  0  0  0  0  0  0  0  0  0  0
    0.0000    0.0000    0.0000 N   0  0  0  0  0  0  0  0  0  0  0  0
    0.0000    0.0000    0.0000 O   0  0  0  0  0  0  0  0  0  0  0  0
    0.0000    0.0000    0.0000 C   0  0  0  0  0  0  0  0  0  0  0  0
    0.0000    0.0000    0.0000 C   0  0  0  0  0  0  0  0  0  0  0  0
    0.0000    0.0000    0.0000 C   0  0  0  0  0  0  0  0  0  0  0  0
    0.0000    0.0000    0.0000 C   0  0  0  0  0  0  0  0  0  0  0  0
    0.0000    0.0000    0.0000 C   0  0  0  0  0  0  0  0  0  0  0  0
    0.0000    0.0000    0.0000 C   0  0  0  0  0  0  0  0  0  0  0  0
    0.0000    0.0000    0.0000 C   0  0  0  0  0  0  0  0  0  0  0  0
    0.0000    0.0000    0.0000 C   0  0  0  0  0  0  0  0  0  0  0  0
    0.0000    0.0000    0.0000 N   0  0  0  0  0  0  0  0  0  0  0  0
    0.0000    0.0000    0.0000 N   0  0  0  0  0  0  0  0  0  0  0  0
  1  2  1  0
  2  3  2  0
  3  4  1  0
  4  5  1  0
  5  6  1  0
  6  7  1  0
  7  8  1  0
  8  9  1  0
  4 10  1  0
 10 11  1  0
 11 12  1  0
 12 13  1  0
 13 14  2  0
 14 15  1  0
 15 16  2  0
 16 17  1  0
 17 18  2  0
 10 19  1  0
 19 20  2  0
 19 21  1  0
 20  2  1  0
  9  4  1  0
 18 13  1  0
M  END
>  <pIC50>  (466) 
5.75

>  <ChEMBL_ID>  (466) 
CHEMBL1824775

>  <document_journal>  (466) 
Bioorg. Med. Chem. Lett.

>  <bao_endpoint>  (466) 
BAO_0000190

>  <potential_duplicate>  (466) 
False

>  <uo_units>  (466) 
UO_0000065

>  <canonical_smiles>  (466) 
NC1=NC2(CCCCC2)N(OCc3ccccc3)C(=N1)N

>  <parent_molecule_chembl_id>  (466) 
CHEMBL1824775

>  <assay_type>  (466) 
B

>  <src_id>  (466) 
1

>  <ligand_efficiency>  (466) 
{u'le': u'0.37', u'bei': u'20', u'sei': u'6.44', u'lle': u'3.55'}

>  <standard_flag>  (466) 
True

>  <molecule_chembl_id>  (466) 
CHEMBL1824775

>  <target_organism>  (466) 
Homo sapiens

>  <standard_units>  (466) 
nM

>  <record_id>  (466) 
1456232

>  <document_chembl_id>  (466) 
CHEMBL1821611

>  <bao_format>  (466) 
BAO_0000357

>  <data_validity_description>  (466) 
None

>  <activity_id>  (466) 
6355175

>  <standard_type>  (466) 
IC50

>  <target_chembl_id>  (466) 
CHEMBL202

>  <data_validity_comment>  (466) 
None

>  <published_value>  (466) 
1.79

>  <document_year>  (466) 
2011

>  <target_pref_name>  (466) 
Dihydrofolate reductase

>  <assay_chembl_id>  (466) 
CHEMBL1826162

>  <standard_relation>  (466) 
=

>  <assay_description>  (466) 
Inhibition of human DHFR assessed as NADPH consumption for conversion of dihydrofolic acid to tetrahydrofolic acid after 6 mins every 5 sec by UV-Visible Spectrophotometer method

>  <published_relation>  (466) 
=

>  <standard_value>  (466) 
1790

>  <qudt_units>  (466) 
http://www.openphacts.org/units/Nanomolar

>  <target_tax_id>  (466) 
9606

>  <bao_label>  (466) 
single protein format

>  <published_units>  (466) 
uM

>  <pchembl_value>  (466) 
5.75

>  <published_type>  (466) 
IC50

>  <activity_comment>  (466) 
None

$$$$

     RDKit          

 22 24  0  0  0  0  0  0  0  0999 V2000
    0.0000    0.0000    0.0000 N   0  0  0  0  0  0  0  0  0  0  0  0
    0.0000    0.0000    0.0000 C   0  0  0  0  0  0  0  0  0  0  0  0
    0.0000    0.0000    0.0000 N   0  0  0  0  0  0  0  0  0  0  0  0
    0.0000    0.0000    0.0000 C   0  0  0  0  0  0  0  0  0  0  0  0
    0.0000    0.0000    0.0000 C   0  0  0  0  0  0  0  0  0  0  0  0
    0.0000    0.0000    0.0000 C   0  0  0  0  0  0  0  0  0  0  0  0
    0.0000    0.0000    0.0000 C   0  0  0  0  0  0  0  0  0  0  0  0
    0.0000    0.0000    0.0000 C   0  0  0  0  0  0  0  0  0  0  0  0
    0.0000    0.0000    0.0000 C   0  0  0  0  0  0  0  0  0  0  0  0
    0.0000    0.0000    0.0000 C   0  0  0  0  0  0  0  0  0  0  0  0
    0.0000    0.0000    0.0000 N   0  0  0  0  0  0  0  0  0  0  0  0
    0.0000    0.0000    0.0000 O   0  0  0  0  0  0  0  0  0  0  0  0
    0.0000    0.0000    0.0000 C   0  0  0  0  0  0  0  0  0  0  0  0
    0.0000    0.0000    0.0000 C   0  0  0  0  0  0  0  0  0  0  0  0
    0.0000    0.0000    0.0000 C   0  0  0  0  0  0  0  0  0  0  0  0
    0.0000    0.0000    0.0000 C   0  0  0  0  0  0  0  0  0  0  0  0
    0.0000    0.0000    0.0000 C   0  0  0  0  0  0  0  0  0  0  0  0
    0.0000    0.0000    0.0000 C   0  0  0  0  0  0  0  0  0  0  0  0
    0.0000    0.0000    0.0000 C   0  0  0  0  0  0  0  0  0  0  0  0
    0.0000    0.0000    0.0000 C   0  0  0  0  0  0  0  0  0  0  0  0
    0.0000    0.0000    0.0000 N   0  0  0  0  0  0  0  0  0  0  0  0
    0.0000    0.0000    0.0000 N   0  0  0  0  0  0  0  0  0  0  0  0
  1  2  1  0
  2  3  2  0
  3  4  1  0
  4  5  1  0
  5  6  1  0
  6  7  1  0
  7  8  1  0
  8  9  1  0
  9 10  1  0
  4 11  1  0
 11 12  1  0
 12 13  1  0
 13 14  1  0
 14 15  2  0
 15 16  1  0
 16 17  2  0
 17 18  1  0
 18 19  2  0
 11 20  1  0
 20 21  2  0
 20 22  1  0
 21  2  1  0
 10  4  1  0
 19 14  1  0
M  END
>  <pIC50>  (467) 
5.27

>  <ChEMBL_ID>  (467) 
CHEMBL1824776

>  <document_journal>  (467) 
Bioorg. Med. Chem. Lett.

>  <bao_endpoint>  (467) 
BAO_0000190

>  <potential_duplicate>  (467) 
False

>  <uo_units>  (467) 
UO_0000065

>  <canonical_smiles>  (467) 
Cl.NC1=NC2(CCCCCC2)N(OCc3ccccc3)C(=N1)N

>  <parent_molecule_chembl_id>  (467) 
CHEMBL1852677

>  <assay_type>  (467) 
B

>  <src_id>  (467) 
1

>  <ligand_efficiency>  (467) 
{u'le': u'0.33', u'bei': u'17.5', u'sei': u'5.91', u'lle': u'2.61'}

>  <standard_flag>  (467) 
True

>  <molecule_chembl_id>  (467) 
CHEMBL1824776

>  <target_organism>  (467) 
Homo sapiens

>  <standard_units>  (467) 
nM

>  <record_id>  (467) 
1456233

>  <document_chembl_id>  (467) 
CHEMBL1821611

>  <bao_format>  (467) 
BAO_0000357

>  <data_validity_description>  (467) 
None

>  <activity_id>  (467) 
6355176

>  <standard_type>  (467) 
IC50

>  <target_chembl_id>  (467) 
CHEMBL202

>  <data_validity_comment>  (467) 
None

>  <published_value>  (467) 
5.33

>  <document_year>  (467) 
2011

>  <target_pref_name>  (467) 
Dihydrofolate reductase

>  <assay_chembl_id>  (467) 
CHEMBL1826162

>  <standard_relation>  (467) 
=

>  <assay_description>  (467) 
Inhibition of human DHFR assessed as NADPH consumption for conversion of dihydrofolic acid to tetrahydrofolic acid after 6 mins every 5 sec by UV-Visible Spectrophotometer method

>  <published_relation>  (467) 
=

>  <standard_value>  (467) 
5330

>  <qudt_units>  (467) 
http://www.openphacts.org/units/Nanomolar

>  <target_tax_id>  (467) 
9606

>  <bao_label>  (467) 
single protein format

>  <published_units>  (467) 
uM

>  <pchembl_value>  (467) 
5.27

>  <published_type>  (467) 
IC50

>  <activity_comment>  (467) 
None

$$$$

     RDKit          

 39 44  0  0  0  0  0  0  0  0999 V2000
    0.0000    0.0000    0.0000 N   0  0  0  0  0  0  0  0  0  0  0  0
    0.0000    0.0000    0.0000 C   0  0  0  0  0  0  0  0  0  0  0  0
    0.0000    0.0000    0.0000 N   0  0  0  0  0  0  0  0  0  0  0  0
    0.0000    0.0000    0.0000 C   0  0  0  0  0  0  0  0  0  0  0  0
    0.0000    0.0000    0.0000 C   0  0  0  0  0  0  0  0  0  0  0  0
    0.0000    0.0000    0.0000 C   0  0  0  0  0  0  0  0  0  0  0  0
    0.0000    0.0000    0.0000 N   0  0  0  0  0  0  0  0  0  0  0  0
    0.0000    0.0000    0.0000 C   0  0  0  0  0  0  0  0  0  0  0  0
    0.0000    0.0000    0.0000 C   0  0  0  0  0  0  0  0  0  0  0  0
    0.0000    0.0000    0.0000 C   0  0  0  0  0  0  0  0  0  0  0  0
    0.0000    0.0000    0.0000 N   0  0  0  0  0  0  0  0  0  0  0  0
    0.0000    0.0000    0.0000 C   0  0  0  0  0  0  0  0  0  0  0  0
    0.0000    0.0000    0.0000 C   0  0  0  0  0  0  0  0  0  0  0  0
    0.0000    0.0000    0.0000 N   0  0  0  0  0  0  0  0  0  0  0  0
    0.0000    0.0000    0.0000 C   0  0  0  0  0  0  0  0  0  0  0  0
    0.0000    0.0000    0.0000 C   0  0  0  0  0  0  0  0  0  0  0  0
    0.0000    0.0000    0.0000 C   0  0  0  0  0  0  0  0  0  0  0  0
    0.0000    0.0000    0.0000 N   0  0  0  0  0  0  0  0  0  0  0  0
    0.0000    0.0000    0.0000 C   0  0  0  0  0  0  0  0  0  0  0  0
    0.0000    0.0000    0.0000 N   0  0  0  0  0  0  0  0  0  0  0  0
    0.0000    0.0000    0.0000 C   0  0  0  0  0  0  0  0  0  0  0  0
    0.0000    0.0000    0.0000 C   0  0  0  0  0  0  0  0  0  0  0  0
    0.0000    0.0000    0.0000 C   0  0  0  0  0  0  0  0  0  0  0  0
    0.0000    0.0000    0.0000 O   0  0  0  0  0  0  0  0  0  0  0  0
    0.0000    0.0000    0.0000 O   0  0  0  0  0  0  0  0  0  0  0  0
    0.0000    0.0000    0.0000 C   0  0  0  0  0  0  0  0  0  0  0  0
    0.0000    0.0000    0.0000 O   0  0  0  0  0  0  0  0  0  0  0  0
    0.0000    0.0000    0.0000 C   0  0  0  0  0  0  0  0  0  0  0  0
    0.0000    0.0000    0.0000 C   0  0  0  0  0  0  0  0  0  0  0  0
    0.0000    0.0000    0.0000 C   0  0  0  0  0  0  0  0  0  0  0  0
    0.0000    0.0000    0.0000 F   0  0  0  0  0  0  0  0  0  0  0  0
    0.0000    0.0000    0.0000 C   0  0  0  0  0  0  0  0  0  0  0  0
    0.0000    0.0000    0.0000 C   0  0  0  0  0  0  0  0  0  0  0  0
    0.0000    0.0000    0.0000 C   0  0  0  0  0  0  0  0  0  0  0  0
    0.0000    0.0000    0.0000 N   0  0  0  0  0  0  0  0  0  0  0  0
    0.0000    0.0000    0.0000 N   0  0  0  0  0  0  0  0  0  0  0  0
    0.0000    0.0000    0.0000 C   0  0  0  0  0  0  0  0  0  0  0  0
    0.0000    0.0000    0.0000 N   0  0  0  0  0  0  0  0  0  0  0  0
    0.0000    0.0000    0.0000 N   0  0  0  0  0  0  0  0  0  0  0  0
  1  2  1  0
  2  3  2  0
  3  4  1  0
  4  5  2  0
  5  6  1  0
  6  7  1  0
  7  8  1  0
  8  9  2  0
  9 10  1  0
 10 11  1  0
 11 12  1  0
 12 13  1  0
 13 14  1  0
 14 15  1  0
 15 16  1  0
 14 17  1  0
 17 18  2  0
 18 19  1  0
 19 20  1  0
 20 21  1  0
 21 22  2  0
 22 23  1  0
 23 24  2  0
 23 25  1  0
 22 26  1  0
 26 27  2  0
 26 28  1  0
 28 29  1  0
 29 30  2  0
 30 31  1  0
 20 32  1  0
 32 33  1  0
 33 34  1  0
  9 35  1  0
 35 36  2  0
  5 37  1  0
 37 38  1  0
 37 39  2  0
 39  2  1  0
 36  7  1  0
 16 11  1  0
 30 17  1  0
 28 19  2  0
 34 32  1  0
M  END
>  <pIC50>  (468) 
4.3

>  <ChEMBL_ID>  (468) 
CHEMBL2012918

>  <document_journal>  (468) 
Bioorg. Med. Chem. Lett.

>  <bao_endpoint>  (468) 
BAO_0000190

>  <potential_duplicate>  (468) 
False

>  <uo_units>  (468) 
UO_0000065

>  <canonical_smiles>  (468) 
Nc1ncc(Cn2cc(CN3CCN(CC3)c4nc5N(C=C(C(=O)O)C(=O)c5cc4F)C6CC6)nn2)c(N)n1

>  <parent_molecule_chembl_id>  (468) 
CHEMBL2012918

>  <assay_type>  (468) 
B

>  <src_id>  (468) 
1

>  <ligand_efficiency>  (468) 
{u'le': u'0.15', u'bei': u'8.03', u'sei': u'2.32', u'lle': u'6.08'}

>  <standard_flag>  (468) 
True

>  <molecule_chembl_id>  (468) 
CHEMBL2012918

>  <target_organism>  (468) 
Homo sapiens

>  <standard_units>  (468) 
nM

>  <record_id>  (468) 
1633611

>  <document_chembl_id>  (468) 
CHEMBL2010671

>  <bao_format>  (468) 
BAO_0000357

>  <data_validity_description>  (468) 
None

>  <activity_id>  (468) 
10843584

>  <standard_type>  (468) 
IC50

>  <target_chembl_id>  (468) 
CHEMBL202

>  <data_validity_comment>  (468) 
None

>  <published_value>  (468) 
50

>  <document_year>  (468) 
2012

>  <target_pref_name>  (468) 
Dihydrofolate reductase

>  <assay_chembl_id>  (468) 
CHEMBL2016367

>  <standard_relation>  (468) 
=

>  <assay_description>  (468) 
Inhibition of DHFR using dihydrofolate as substrate following 3 mins substrate preincubation measured after 3 mins by spectrophotometric analysis

>  <published_relation>  (468) 
=

>  <standard_value>  (468) 
50000

>  <qudt_units>  (468) 
http://www.openphacts.org/units/Nanomolar

>  <target_tax_id>  (468) 
9606

>  <bao_label>  (468) 
single protein format

>  <published_units>  (468) 
uM

>  <pchembl_value>  (468) 
4.3

>  <published_type>  (468) 
IC50

>  <activity_comment>  (468) 
None

$$$$

     RDKit          

 21 23  0  0  0  0  0  0  0  0999 V2000
    0.0000    0.0000    0.0000 C   0  0  0  0  0  0  0  0  0  0  0  0
    0.0000    0.0000    0.0000 O   0  0  0  0  0  0  0  0  0  0  0  0
    0.0000    0.0000    0.0000 C   0  0  0  0  0  0  0  0  0  0  0  0
    0.0000    0.0000    0.0000 C   0  0  0  0  0  0  0  0  0  0  0  0
    0.0000    0.0000    0.0000 C   0  0  0  0  0  0  0  0  0  0  0  0
    0.0000    0.0000    0.0000 C   0  0  0  0  0  0  0  0  0  0  0  0
    0.0000    0.0000    0.0000 C   0  0  0  0  0  0  0  0  0  0  0  0
    0.0000    0.0000    0.0000 C   0  0  0  0  0  0  0  0  0  0  0  0
    0.0000    0.0000    0.0000 N   0  0  0  0  0  0  0  0  0  0  0  0
    0.0000    0.0000    0.0000 C   0  0  0  0  0  0  0  0  0  0  0  0
    0.0000    0.0000    0.0000 N   0  0  0  0  0  0  0  0  0  0  0  0
    0.0000    0.0000    0.0000 N   0  0  0  0  0  0  0  0  0  0  0  0
    0.0000    0.0000    0.0000 C   0  0  0  0  0  0  0  0  0  0  0  0
    0.0000    0.0000    0.0000 N   0  0  0  0  0  0  0  0  0  0  0  0
    0.0000    0.0000    0.0000 C   0  0  0  0  0  0  0  0  0  0  0  0
    0.0000    0.0000    0.0000 C   0  0  0  0  0  0  0  0  0  0  0  0
    0.0000    0.0000    0.0000 N   0  0  0  0  0  0  0  0  0  0  0  0
    0.0000    0.0000    0.0000 C   0  0  0  0  0  0  0  0  0  0  0  0
    0.0000    0.0000    0.0000 C   0  0  0  0  0  0  0  0  0  0  0  0
    0.0000    0.0000    0.0000 O   0  0  0  0  0  0  0  0  0  0  0  0
    0.0000    0.0000    0.0000 C   0  0  0  0  0  0  0  0  0  0  0  0
  1  2  1  0
  2  3  1  0
  3  4  2  0
  4  5  1  0
  5  6  1  0
  6  7  1  0
  7  8  2  0
  8  9  1  0
  9 10  2  0
 10 11  1  0
 10 12  1  0
 12 13  2  0
 13 14  1  0
  5 15  2  0
 15 16  1  0
 16 17  1  0
 17 18  1  0
 18 19  1  0
 19 20  1  0
 20 21  1  0
 21  3  1  0
 13  7  1  0
 21 16  2  0
M  END
>  <pIC50>  (469) 
6.47

>  <ChEMBL_ID>  (469) 
CHEMBL2012911

>  <document_journal>  (469) 
Bioorg. Med. Chem. Lett.

>  <bao_endpoint>  (469) 
BAO_0000190

>  <potential_duplicate>  (469) 
False

>  <uo_units>  (469) 
UO_0000065

>  <canonical_smiles>  (469) 
COc1cc(Cc2cnc(N)nc2N)cc3NCCOc13

>  <parent_molecule_chembl_id>  (469) 
CHEMBL2012911

>  <assay_type>  (469) 
B

>  <src_id>  (469) 
1

>  <ligand_efficiency>  (469) 
{u'le': u'0.42', u'bei': u'22.51', u'sei': u'5.97', u'lle': u'5.28'}

>  <standard_flag>  (469) 
True

>  <molecule_chembl_id>  (469) 
CHEMBL2012911

>  <target_organism>  (469) 
Homo sapiens

>  <standard_units>  (469) 
nM

>  <record_id>  (469) 
1633604

>  <document_chembl_id>  (469) 
CHEMBL2010671

>  <bao_format>  (469) 
BAO_0000357

>  <data_validity_description>  (469) 
None

>  <activity_id>  (469) 
10843652

>  <standard_type>  (469) 
IC50

>  <target_chembl_id>  (469) 
CHEMBL202

>  <data_validity_comment>  (469) 
None

>  <published_value>  (469) 
0.34

>  <document_year>  (469) 
2012

>  <target_pref_name>  (469) 
Dihydrofolate reductase

>  <assay_chembl_id>  (469) 
CHEMBL2016367

>  <standard_relation>  (469) 
=

>  <assay_description>  (469) 
Inhibition of DHFR using dihydrofolate as substrate following 3 mins substrate preincubation measured after 3 mins by spectrophotometric analysis

>  <published_relation>  (469) 
=

>  <standard_value>  (469) 
340

>  <qudt_units>  (469) 
http://www.openphacts.org/units/Nanomolar

>  <target_tax_id>  (469) 
9606

>  <bao_label>  (469) 
single protein format

>  <published_units>  (469) 
uM

>  <pchembl_value>  (469) 
6.47

>  <published_type>  (469) 
IC50

>  <activity_comment>  (469) 
None

$$$$

     RDKit          

 33 36  0  0  0  0  0  0  0  0999 V2000
    0.0000    0.0000    0.0000 N   0  0  0  0  0  0  0  0  0  0  0  0
    0.0000    0.0000    0.0000 C   0  0  0  0  0  0  0  0  0  0  0  0
    0.0000    0.0000    0.0000 N   0  0  0  0  0  0  0  0  0  0  0  0
    0.0000    0.0000    0.0000 C   0  0  0  0  0  0  0  0  0  0  0  0
    0.0000    0.0000    0.0000 N   0  0  0  0  0  0  0  0  0  0  0  0
    0.0000    0.0000    0.0000 C   0  0  0  0  0  0  0  0  0  0  0  0
    0.0000    0.0000    0.0000 N   0  0  0  0  0  0  0  0  0  0  0  0
    0.0000    0.0000    0.0000 C   0  0  0  0  0  0  0  0  0  0  0  0
    0.0000    0.0000    0.0000 N   0  0  0  0  0  0  0  0  0  0  0  0
    0.0000    0.0000    0.0000 C   0  0  0  0  0  0  0  0  0  0  0  0
    0.0000    0.0000    0.0000 C   0  0  0  0  0  0  0  0  0  0  0  0
    0.0000    0.0000    0.0000 C   0  0  0  0  0  0  0  0  0  0  0  0
    0.0000    0.0000    0.0000 C   0  0  0  0  0  0  0  0  0  0  0  0
    0.0000    0.0000    0.0000 C   0  0  0  0  0  0  0  0  0  0  0  0
    0.0000    0.0000    0.0000 N   0  0  0  0  0  0  0  0  0  0  0  0
    0.0000    0.0000    0.0000 C   0  0  0  0  0  0  0  0  0  0  0  0
    0.0000    0.0000    0.0000 C   0  0  0  0  0  0  0  0  0  0  0  0
    0.0000    0.0000    0.0000 C   0  0  0  0  0  0  0  0  0  0  0  0
    0.0000    0.0000    0.0000 C   0  0  0  0  0  0  0  0  0  0  0  0
    0.0000    0.0000    0.0000 C   0  0  0  0  0  0  0  0  0  0  0  0
    0.0000    0.0000    0.0000 C   0  0  0  0  0  0  0  0  0  0  0  0
    0.0000    0.0000    0.0000 C   0  0  0  0  0  0  0  0  0  0  0  0
    0.0000    0.0000    0.0000 O   0  0  0  0  0  0  0  0  0  0  0  0
    0.0000    0.0000    0.0000 N   0  0  0  0  0  0  0  0  0  0  0  0
    0.0000    0.0000    0.0000 C   0  0  0  0  0  0  0  0  0  0  0  0
    0.0000    0.0000    0.0000 C   0  0  0  0  0  0  0  0  0  0  0  0
    0.0000    0.0000    0.0000 C   0  0  0  0  0  0  0  0  0  0  0  0
    0.0000    0.0000    0.0000 C   0  0  0  0  0  0  0  0  0  0  0  0
    0.0000    0.0000    0.0000 O   0  0  0  0  0  0  0  0  0  0  0  0
    0.0000    0.0000    0.0000 O   0  0  0  0  0  0  0  0  0  0  0  0
    0.0000    0.0000    0.0000 C   0  0  0  0  0  0  0  0  0  0  0  0
    0.0000    0.0000    0.0000 O   0  0  0  0  0  0  0  0  0  0  0  0
    0.0000    0.0000    0.0000 O   0  0  0  0  0  0  0  0  0  0  0  0
  1  2  1  0
  2  3  2  0
  3  4  1  0
  4  5  1  0
  4  6  2  0
  6  7  1  0
  7  8  1  0
  8  9  1  0
  9 10  1  0
 10 11  1  0
 11 12  1  0
 12 13  1  0
 13 14  1  0
 14 15  2  0
  9 16  1  0
 16 17  2  0
 17 18  1  0
 18 19  2  0
 19 20  1  0
 20 21  2  0
 19 22  1  0
 22 23  2  0
 22 24  1  0
 24 25  1  0
 25 26  1  0
 26 27  1  0
 27 28  1  0
 28 29  2  0
 28 30  1  0
 25 31  1  0
 31 32  2  0
 31 33  1  0
 15  2  1  0
 14  6  1  0
 11  7  1  0
 21 16  1  0
M  END
>  <pIC50>  (470) 
6.1

>  <ChEMBL_ID>  (470) 
CHEMBL2153704

>  <document_journal>  (470) 
Eur. J. Med. Chem.

>  <bao_endpoint>  (470) 
BAO_0000190

>  <potential_duplicate>  (470) 
False

>  <uo_units>  (470) 
UO_0000065

>  <canonical_smiles>  (470) 
Nc1nc(N)c2N3CN(CC3CCc2n1)c4ccc(cc4)C(=O)N[C@@H](CCC(=O)O)C(=O)O

>  <parent_molecule_chembl_id>  (470) 
CHEMBL2153704

>  <assay_type>  (470) 
B

>  <src_id>  (470) 
1

>  <ligand_efficiency>  (470) 
{u'le': u'0.25', u'bei': u'13.39', u'sei': u'3.24', u'lle': u'5.27'}

>  <standard_flag>  (470) 
True

>  <molecule_chembl_id>  (470) 
CHEMBL2153704

>  <target_organism>  (470) 
Homo sapiens

>  <standard_units>  (470) 
nM

>  <record_id>  (470) 
1732628

>  <document_chembl_id>  (470) 
CHEMBL2150940

>  <bao_format>  (470) 
BAO_0000357

>  <data_validity_description>  (470) 
None

>  <activity_id>  (470) 
12059197

>  <standard_type>  (470) 
IC50

>  <target_chembl_id>  (470) 
CHEMBL202

>  <data_validity_comment>  (470) 
None

>  <published_value>  (470) 
0.8

>  <document_year>  (470) 
2012

>  <target_pref_name>  (470) 
Dihydrofolate reductase

>  <assay_chembl_id>  (470) 
CHEMBL2153943

>  <standard_relation>  (470) 
=

>  <assay_description>  (470) 
Inhibition of human recombinant DHFR using dihydrofolate as substrate by spectrophotometric analysis

>  <published_relation>  (470) 
=

>  <standard_value>  (470) 
800

>  <qudt_units>  (470) 
http://www.openphacts.org/units/Nanomolar

>  <target_tax_id>  (470) 
9606

>  <bao_label>  (470) 
single protein format

>  <published_units>  (470) 
uM

>  <pchembl_value>  (470) 
6.1

>  <published_type>  (470) 
IC50

>  <activity_comment>  (470) 
None

$$$$

     RDKit          

 32 34  0  0  0  0  0  0  0  0999 V2000
    0.0000    0.0000    0.0000 N   0  0  0  0  0  0  0  0  0  0  0  0
    0.0000    0.0000    0.0000 C   0  0  0  0  0  0  0  0  0  0  0  0
    0.0000    0.0000    0.0000 N   0  0  0  0  0  0  0  0  0  0  0  0
    0.0000    0.0000    0.0000 C   0  0  0  0  0  0  0  0  0  0  0  0
    0.0000    0.0000    0.0000 N   0  0  0  0  0  0  0  0  0  0  0  0
    0.0000    0.0000    0.0000 C   0  0  0  0  0  0  0  0  0  0  0  0
    0.0000    0.0000    0.0000 N   0  0  0  0  0  0  0  0  0  0  0  0
    0.0000    0.0000    0.0000 C   0  0  0  0  0  0  0  0  0  0  0  0
    0.0000    0.0000    0.0000 C   0  0  0  0  0  0  0  0  0  0  0  0
    0.0000    0.0000    0.0000 N   0  0  0  0  0  0  0  0  0  0  0  0
    0.0000    0.0000    0.0000 C   0  0  0  0  0  0  0  0  0  0  0  0
    0.0000    0.0000    0.0000 C   0  0  0  0  0  0  0  0  0  0  0  0
    0.0000    0.0000    0.0000 C   0  0  0  0  0  0  0  0  0  0  0  0
    0.0000    0.0000    0.0000 C   0  0  0  0  0  0  0  0  0  0  0  0
    0.0000    0.0000    0.0000 C   0  0  0  0  0  0  0  0  0  0  0  0
    0.0000    0.0000    0.0000 C   0  0  0  0  0  0  0  0  0  0  0  0
    0.0000    0.0000    0.0000 C   0  0  0  0  0  0  0  0  0  0  0  0
    0.0000    0.0000    0.0000 O   0  0  0  0  0  0  0  0  0  0  0  0
    0.0000    0.0000    0.0000 N   0  0  0  0  0  0  0  0  0  0  0  0
    0.0000    0.0000    0.0000 C   0  0  0  0  0  0  0  0  0  0  0  0
    0.0000    0.0000    0.0000 C   0  0  0  0  0  0  0  0  0  0  0  0
    0.0000    0.0000    0.0000 C   0  0  0  0  0  0  0  0  0  0  0  0
    0.0000    0.0000    0.0000 C   0  0  0  0  0  0  0  0  0  0  0  0
    0.0000    0.0000    0.0000 O   0  0  0  0  0  0  0  0  0  0  0  0
    0.0000    0.0000    0.0000 O   0  0  0  0  0  0  0  0  0  0  0  0
    0.0000    0.0000    0.0000 C   0  0  0  0  0  0  0  0  0  0  0  0
    0.0000    0.0000    0.0000 O   0  0  0  0  0  0  0  0  0  0  0  0
    0.0000    0.0000    0.0000 O   0  0  0  0  0  0  0  0  0  0  0  0
    0.0000    0.0000    0.0000 C   0  0  0  0  0  0  0  0  0  0  0  0
    0.0000    0.0000    0.0000 C   0  0  0  0  0  0  0  0  0  0  0  0
    0.0000    0.0000    0.0000 C   0  0  0  0  0  0  0  0  0  0  0  0
    0.0000    0.0000    0.0000 N   0  0  0  0  0  0  0  0  0  0  0  0
  1  2  1  0
  2  3  2  0
  3  4  1  0
  4  5  1  0
  4  6  2  0
  6  7  1  0
  7  8  2  0
  8  9  1  0
  9 10  1  0
 10 11  1  0
 11 12  2  0
 12 13  1  0
 13 14  2  0
 14 15  1  0
 15 16  2  0
 14 17  1  0
 17 18  2  0
 17 19  1  0
 19 20  1  0
 20 21  1  0
 21 22  1  0
 22 23  1  0
 23 24  2  0
 23 25  1  0
 20 26  1  0
 26 27  2  0
 26 28  1  0
  8 29  1  0
 29 30  2  0
 30 31  1  0
 31 32  2  0
 32  2  1  0
 31  6  1  0
 16 11  1  0
M  END
>  <pIC50>  (471) 
7.75

>  <ChEMBL_ID>  (471) 
CHEMBL2153707

>  <document_journal>  (471) 
Eur. J. Med. Chem.

>  <bao_endpoint>  (471) 
BAO_0000190

>  <potential_duplicate>  (471) 
False

>  <uo_units>  (471) 
UO_0000065

>  <canonical_smiles>  (471) 
Nc1nc(N)c2nc(CNc3ccc(cc3)C(=O)N[C@@H](CCC(=O)O)C(=O)O)ccc2n1

>  <parent_molecule_chembl_id>  (471) 
CHEMBL2153707

>  <assay_type>  (471) 
B

>  <src_id>  (471) 
1

>  <ligand_efficiency>  (471) 
{u'le': u'0.33', u'bei': u'17.62', u'sei': u'3.75', u'lle': u'7.02'}

>  <standard_flag>  (471) 
True

>  <molecule_chembl_id>  (471) 
CHEMBL2153707

>  <target_organism>  (471) 
Homo sapiens

>  <standard_units>  (471) 
nM

>  <record_id>  (471) 
1732631

>  <document_chembl_id>  (471) 
CHEMBL2150940

>  <bao_format>  (471) 
BAO_0000357

>  <data_validity_description>  (471) 
None

>  <activity_id>  (471) 
12059201

>  <standard_type>  (471) 
IC50

>  <target_chembl_id>  (471) 
CHEMBL202

>  <data_validity_comment>  (471) 
None

>  <published_value>  (471) 
0.018

>  <document_year>  (471) 
2012

>  <target_pref_name>  (471) 
Dihydrofolate reductase

>  <assay_chembl_id>  (471) 
CHEMBL2153943

>  <standard_relation>  (471) 
=

>  <assay_description>  (471) 
Inhibition of human recombinant DHFR using dihydrofolate as substrate by spectrophotometric analysis

>  <published_relation>  (471) 
=

>  <standard_value>  (471) 
18

>  <qudt_units>  (471) 
http://www.openphacts.org/units/Nanomolar

>  <target_tax_id>  (471) 
9606

>  <bao_label>  (471) 
single protein format

>  <published_units>  (471) 
uM

>  <pchembl_value>  (471) 
7.75

>  <published_type>  (471) 
IC50

>  <activity_comment>  (471) 
None

$$$$

     RDKit          

 33 35  0  0  0  0  0  0  0  0999 V2000
    0.0000    0.0000    0.0000 C   0  0  0  0  0  0  0  0  0  0  0  0
    0.0000    0.0000    0.0000 N   0  0  0  0  0  0  0  0  0  0  0  0
    0.0000    0.0000    0.0000 C   0  0  0  0  0  0  0  0  0  0  0  0
    0.0000    0.0000    0.0000 C   0  0  0  0  0  0  0  0  0  0  0  0
    0.0000    0.0000    0.0000 C   0  0  0  0  0  0  0  0  0  0  0  0
    0.0000    0.0000    0.0000 C   0  0  0  0  0  0  0  0  0  0  0  0
    0.0000    0.0000    0.0000 C   0  0  0  0  0  0  0  0  0  0  0  0
    0.0000    0.0000    0.0000 N   0  0  0  0  0  0  0  0  0  0  0  0
    0.0000    0.0000    0.0000 C   0  0  0  0  0  0  0  0  0  0  0  0
    0.0000    0.0000    0.0000 N   0  0  0  0  0  0  0  0  0  0  0  0
    0.0000    0.0000    0.0000 N   0  0  0  0  0  0  0  0  0  0  0  0
    0.0000    0.0000    0.0000 C   0  0  0  0  0  0  0  0  0  0  0  0
    0.0000    0.0000    0.0000 N   0  0  0  0  0  0  0  0  0  0  0  0
    0.0000    0.0000    0.0000 C   0  0  0  0  0  0  0  0  0  0  0  0
    0.0000    0.0000    0.0000 N   0  0  0  0  0  0  0  0  0  0  0  0
    0.0000    0.0000    0.0000 C   0  0  0  0  0  0  0  0  0  0  0  0
    0.0000    0.0000    0.0000 C   0  0  0  0  0  0  0  0  0  0  0  0
    0.0000    0.0000    0.0000 C   0  0  0  0  0  0  0  0  0  0  0  0
    0.0000    0.0000    0.0000 C   0  0  0  0  0  0  0  0  0  0  0  0
    0.0000    0.0000    0.0000 C   0  0  0  0  0  0  0  0  0  0  0  0
    0.0000    0.0000    0.0000 C   0  0  0  0  0  0  0  0  0  0  0  0
    0.0000    0.0000    0.0000 C   0  0  0  0  0  0  0  0  0  0  0  0
    0.0000    0.0000    0.0000 O   0  0  0  0  0  0  0  0  0  0  0  0
    0.0000    0.0000    0.0000 N   0  0  0  0  0  0  0  0  0  0  0  0
    0.0000    0.0000    0.0000 C   0  0  0  0  0  0  0  0  0  0  0  0
    0.0000    0.0000    0.0000 C   0  0  0  0  0  0  0  0  0  0  0  0
    0.0000    0.0000    0.0000 C   0  0  0  0  0  0  0  0  0  0  0  0
    0.0000    0.0000    0.0000 C   0  0  0  0  0  0  0  0  0  0  0  0
    0.0000    0.0000    0.0000 O   0  0  0  0  0  0  0  0  0  0  0  0
    0.0000    0.0000    0.0000 O   0  0  0  0  0  0  0  0  0  0  0  0
    0.0000    0.0000    0.0000 C   0  0  0  0  0  0  0  0  0  0  0  0
    0.0000    0.0000    0.0000 O   0  0  0  0  0  0  0  0  0  0  0  0
    0.0000    0.0000    0.0000 O   0  0  0  0  0  0  0  0  0  0  0  0
  1  2  1  0
  2  3  1  0
  3  4  1  0
  4  5  1  0
  5  6  1  0
  6  7  1  0
  7  8  2  0
  8  9  1  0
  9 10  1  0
  9 11  2  0
 11 12  1  0
 12 13  1  0
 12 14  2  0
 14 15  1  0
  2 16  1  0
 16 17  2  0
 17 18  1  0
 18 19  2  0
 19 20  1  0
 20 21  2  0
 19 22  1  0
 22 23  2  0
 22 24  1  0
 24 25  1  0
 25 26  1  0
 26 27  1  0
 27 28  1  0
 28 29  2  0
 28 30  1  0
 25 31  1  0
 31 32  2  0
 31 33  1  0
 15  4  1  0
 14  7  1  0
 21 16  1  0
M  END
>  <pIC50>  (472) 
7.48

>  <ChEMBL_ID>  (472) 
CHEMBL2153709

>  <document_journal>  (472) 
Eur. J. Med. Chem.

>  <bao_endpoint>  (472) 
BAO_0000190

>  <potential_duplicate>  (472) 
False

>  <uo_units>  (472) 
UO_0000065

>  <canonical_smiles>  (472) 
CN(CC1CCc2nc(N)nc(N)c2N1)c3ccc(cc3)C(=O)N[C@@H](CCC(=O)O)C(=O)O

>  <parent_molecule_chembl_id>  (472) 
CHEMBL2153709

>  <assay_type>  (472) 
B

>  <src_id>  (472) 
1

>  <ligand_efficiency>  (472) 
{u'le': u'0.31', u'bei': u'16.35', u'sei': u'3.8', u'lle': u'6.8'}

>  <standard_flag>  (472) 
True

>  <molecule_chembl_id>  (472) 
CHEMBL2153709

>  <target_organism>  (472) 
Homo sapiens

>  <standard_units>  (472) 
nM

>  <record_id>  (472) 
1732633

>  <document_chembl_id>  (472) 
CHEMBL2150940

>  <bao_format>  (472) 
BAO_0000357

>  <data_validity_description>  (472) 
None

>  <activity_id>  (472) 
12059202

>  <standard_type>  (472) 
IC50

>  <target_chembl_id>  (472) 
CHEMBL202

>  <data_validity_comment>  (472) 
None

>  <published_value>  (472) 
0.033

>  <document_year>  (472) 
2012

>  <target_pref_name>  (472) 
Dihydrofolate reductase

>  <assay_chembl_id>  (472) 
CHEMBL2153943

>  <standard_relation>  (472) 
=

>  <assay_description>  (472) 
Inhibition of human recombinant DHFR using dihydrofolate as substrate by spectrophotometric analysis

>  <published_relation>  (472) 
=

>  <standard_value>  (472) 
33

>  <qudt_units>  (472) 
http://www.openphacts.org/units/Nanomolar

>  <target_tax_id>  (472) 
9606

>  <bao_label>  (472) 
single protein format

>  <published_units>  (472) 
uM

>  <pchembl_value>  (472) 
7.48

>  <published_type>  (472) 
IC50

>  <activity_comment>  (472) 
None

$$$$

     RDKit          

 43 46  0  0  0  0  0  0  0  0999 V2000
    0.0000    0.0000    0.0000 C   0  0  0  0  0  0  0  0  0  0  0  0
    0.0000    0.0000    0.0000 N   0  0  0  0  0  0  0  0  0  0  0  0
    0.0000    0.0000    0.0000 C   0  0  0  0  0  0  0  0  0  0  0  0
    0.0000    0.0000    0.0000 C   0  0  0  0  0  0  0  0  0  0  0  0
    0.0000    0.0000    0.0000 C   0  0  0  0  0  0  0  0  0  0  0  0
    0.0000    0.0000    0.0000 C   0  0  0  0  0  0  0  0  0  0  0  0
    0.0000    0.0000    0.0000 C   0  0  0  0  0  0  0  0  0  0  0  0
    0.0000    0.0000    0.0000 N   0  0  0  0  0  0  0  0  0  0  0  0
    0.0000    0.0000    0.0000 C   0  0  0  0  0  0  0  0  0  0  0  0
    0.0000    0.0000    0.0000 N   0  0  0  0  0  0  0  0  0  0  0  0
    0.0000    0.0000    0.0000 N   0  0  0  0  0  0  0  0  0  0  0  0
    0.0000    0.0000    0.0000 C   0  0  0  0  0  0  0  0  0  0  0  0
    0.0000    0.0000    0.0000 N   0  0  0  0  0  0  0  0  0  0  0  0
    0.0000    0.0000    0.0000 C   0  0  0  0  0  0  0  0  0  0  0  0
    0.0000    0.0000    0.0000 N   0  0  0  0  0  0  0  0  0  0  0  0
    0.0000    0.0000    0.0000 S   0  0  0  0  0  0  0  0  0  0  0  0
    0.0000    0.0000    0.0000 O   0  0  0  0  0  0  0  0  0  0  0  0
    0.0000    0.0000    0.0000 O   0  0  0  0  0  0  0  0  0  0  0  0
    0.0000    0.0000    0.0000 C   0  0  0  0  0  0  0  0  0  0  0  0
    0.0000    0.0000    0.0000 C   0  0  0  0  0  0  0  0  0  0  0  0
    0.0000    0.0000    0.0000 C   0  0  0  0  0  0  0  0  0  0  0  0
    0.0000    0.0000    0.0000 C   0  0  0  0  0  0  0  0  0  0  0  0
    0.0000    0.0000    0.0000 C   0  0  0  0  0  0  0  0  0  0  0  0
    0.0000    0.0000    0.0000 C   0  0  0  0  0  0  0  0  0  0  0  0
    0.0000    0.0000    0.0000 C   0  0  0  0  0  0  0  0  0  0  0  0
    0.0000    0.0000    0.0000 C   0  0  0  0  0  0  0  0  0  0  0  0
    0.0000    0.0000    0.0000 C   0  0  0  0  0  0  0  0  0  0  0  0
    0.0000    0.0000    0.0000 C   0  0  0  0  0  0  0  0  0  0  0  0
    0.0000    0.0000    0.0000 C   0  0  0  0  0  0  0  0  0  0  0  0
    0.0000    0.0000    0.0000 C   0  0  0  0  0  0  0  0  0  0  0  0
    0.0000    0.0000    0.0000 C   0  0  0  0  0  0  0  0  0  0  0  0
    0.0000    0.0000    0.0000 C   0  0  0  0  0  0  0  0  0  0  0  0
    0.0000    0.0000    0.0000 O   0  0  0  0  0  0  0  0  0  0  0  0
    0.0000    0.0000    0.0000 N   0  0  0  0  0  0  0  0  0  0  0  0
    0.0000    0.0000    0.0000 C   0  0  0  0  0  0  0  0  0  0  0  0
    0.0000    0.0000    0.0000 C   0  0  0  0  0  0  0  0  0  0  0  0
    0.0000    0.0000    0.0000 C   0  0  0  0  0  0  0  0  0  0  0  0
    0.0000    0.0000    0.0000 C   0  0  0  0  0  0  0  0  0  0  0  0
    0.0000    0.0000    0.0000 O   0  0  0  0  0  0  0  0  0  0  0  0
    0.0000    0.0000    0.0000 O   0  0  0  0  0  0  0  0  0  0  0  0
    0.0000    0.0000    0.0000 C   0  0  0  0  0  0  0  0  0  0  0  0
    0.0000    0.0000    0.0000 O   0  0  0  0  0  0  0  0  0  0  0  0
    0.0000    0.0000    0.0000 O   0  0  0  0  0  0  0  0  0  0  0  0
  1  2  1  0
  2  3  1  0
  3  4  1  0
  4  5  1  0
  5  6  1  0
  6  7  1  0
  7  8  2  0
  8  9  1  0
  9 10  1  0
  9 11  2  0
 11 12  1  0
 12 13  1  0
 12 14  2  0
 14 15  1  0
 15 16  1  0
 16 17  2  0
 16 18  2  0
 16 19  1  0
 19 20  2  0
 20 21  1  0
 21 22  2  0
 22 23  1  0
 22 24  1  0
 24 25  2  0
  2 26  1  0
 26 27  2  0
 27 28  1  0
 28 29  2  0
 29 30  1  0
 30 31  2  0
 29 32  1  0
 32 33  2  0
 32 34  1  0
 34 35  1  0
 35 36  1  0
 36 37  1  0
 37 38  1  0
 38 39  2  0
 38 40  1  0
 35 41  1  0
 41 42  2  0
 41 43  1  0
 15  4  1  0
 14  7  1  0
 25 19  1  0
 31 26  1  0
M  END
>  <pIC50>  (473) 
5.97

>  <ChEMBL_ID>  (473) 
CHEMBL2153710

>  <document_journal>  (473) 
Eur. J. Med. Chem.

>  <bao_endpoint>  (473) 
BAO_0000190

>  <potential_duplicate>  (473) 
False

>  <uo_units>  (473) 
UO_0000065

>  <canonical_smiles>  (473) 
CN(CC1CCc2nc(N)nc(N)c2N1S(=O)(=O)c3ccc(C)cc3)c4ccc(cc4)C(=O)N[C@@H](CCC(=O)O)C(=O)O

>  <parent_molecule_chembl_id>  (473) 
CHEMBL2153710

>  <assay_type>  (473) 
B

>  <src_id>  (473) 
1

>  <ligand_efficiency>  (473) 
{u'le': u'0.19', u'bei': u'9.76', u'sei': u'2.59', u'lle': u'3.92'}

>  <standard_flag>  (473) 
True

>  <molecule_chembl_id>  (473) 
CHEMBL2153710

>  <target_organism>  (473) 
Homo sapiens

>  <standard_units>  (473) 
nM

>  <record_id>  (473) 
1732635

>  <document_chembl_id>  (473) 
CHEMBL2150940

>  <bao_format>  (473) 
BAO_0000357

>  <data_validity_description>  (473) 
None

>  <activity_id>  (473) 
12059204

>  <standard_type>  (473) 
IC50

>  <target_chembl_id>  (473) 
CHEMBL202

>  <data_validity_comment>  (473) 
None

>  <published_value>  (473) 
1.07

>  <document_year>  (473) 
2012

>  <target_pref_name>  (473) 
Dihydrofolate reductase

>  <assay_chembl_id>  (473) 
CHEMBL2153943

>  <standard_relation>  (473) 
=

>  <assay_description>  (473) 
Inhibition of human recombinant DHFR using dihydrofolate as substrate by spectrophotometric analysis

>  <published_relation>  (473) 
=

>  <standard_value>  (473) 
1070

>  <qudt_units>  (473) 
http://www.openphacts.org/units/Nanomolar

>  <target_tax_id>  (473) 
9606

>  <bao_label>  (473) 
single protein format

>  <published_units>  (473) 
uM

>  <pchembl_value>  (473) 
5.97

>  <published_type>  (473) 
IC50

>  <activity_comment>  (473) 
None

$$$$

     RDKit          

 35 37  0  0  0  0  0  0  0  0999 V2000
    0.0000    0.0000    0.0000 C   0  0  0  0  0  0  0  0  0  0  0  0
    0.0000    0.0000    0.0000 N   0  0  0  0  0  0  0  0  0  0  0  0
    0.0000    0.0000    0.0000 C   0  0  0  0  0  0  0  0  0  0  0  0
    0.0000    0.0000    0.0000 C   0  0  0  0  0  0  0  0  0  0  0  0
    0.0000    0.0000    0.0000 C   0  0  0  0  0  0  0  0  0  0  0  0
    0.0000    0.0000    0.0000 C   0  0  0  0  0  0  0  0  0  0  0  0
    0.0000    0.0000    0.0000 C   0  0  0  0  0  0  0  0  0  0  0  0
    0.0000    0.0000    0.0000 N   0  0  0  0  0  0  0  0  0  0  0  0
    0.0000    0.0000    0.0000 C   0  0  0  0  0  0  0  0  0  0  0  0
    0.0000    0.0000    0.0000 N   0  0  0  0  0  0  0  0  0  0  0  0
    0.0000    0.0000    0.0000 N   0  0  0  0  0  0  0  0  0  0  0  0
    0.0000    0.0000    0.0000 C   0  0  0  0  0  0  0  0  0  0  0  0
    0.0000    0.0000    0.0000 N   0  0  0  0  0  0  0  0  0  0  0  0
    0.0000    0.0000    0.0000 C   0  0  0  0  0  0  0  0  0  0  0  0
    0.0000    0.0000    0.0000 N   0  0  0  0  0  0  0  0  0  0  0  0
    0.0000    0.0000    0.0000 C   0  0  0  0  0  0  0  0  0  0  0  0
    0.0000    0.0000    0.0000 O   0  0  0  0  0  0  0  0  0  0  0  0
    0.0000    0.0000    0.0000 C   0  0  0  0  0  0  0  0  0  0  0  0
    0.0000    0.0000    0.0000 C   0  0  0  0  0  0  0  0  0  0  0  0
    0.0000    0.0000    0.0000 C   0  0  0  0  0  0  0  0  0  0  0  0
    0.0000    0.0000    0.0000 C   0  0  0  0  0  0  0  0  0  0  0  0
    0.0000    0.0000    0.0000 C   0  0  0  0  0  0  0  0  0  0  0  0
    0.0000    0.0000    0.0000 C   0  0  0  0  0  0  0  0  0  0  0  0
    0.0000    0.0000    0.0000 C   0  0  0  0  0  0  0  0  0  0  0  0
    0.0000    0.0000    0.0000 O   0  0  0  0  0  0  0  0  0  0  0  0
    0.0000    0.0000    0.0000 N   0  0  0  0  0  0  0  0  0  0  0  0
    0.0000    0.0000    0.0000 C   0  0  0  0  0  0  0  0  0  0  0  0
    0.0000    0.0000    0.0000 C   0  0  0  0  0  0  0  0  0  0  0  0
    0.0000    0.0000    0.0000 C   0  0  0  0  0  0  0  0  0  0  0  0
    0.0000    0.0000    0.0000 C   0  0  0  0  0  0  0  0  0  0  0  0
    0.0000    0.0000    0.0000 O   0  0  0  0  0  0  0  0  0  0  0  0
    0.0000    0.0000    0.0000 O   0  0  0  0  0  0  0  0  0  0  0  0
    0.0000    0.0000    0.0000 C   0  0  0  0  0  0  0  0  0  0  0  0
    0.0000    0.0000    0.0000 O   0  0  0  0  0  0  0  0  0  0  0  0
    0.0000    0.0000    0.0000 O   0  0  0  0  0  0  0  0  0  0  0  0
  1  2  1  0
  2  3  1  0
  3  4  1  0
  4  5  1  0
  5  6  1  0
  6  7  1  0
  7  8  2  0
  8  9  1  0
  9 10  1  0
  9 11  2  0
 11 12  1  0
 12 13  1  0
 12 14  2  0
 14 15  1  0
 15 16  1  0
 16 17  2  0
  2 18  1  0
 18 19  2  0
 19 20  1  0
 20 21  2  0
 21 22  1  0
 22 23  2  0
 21 24  1  0
 24 25  2  0
 24 26  1  0
 26 27  1  0
 27 28  1  0
 28 29  1  0
 29 30  1  0
 30 31  2  0
 30 32  1  0
 27 33  1  0
 33 34  2  0
 33 35  1  0
 15  4  1  0
 14  7  1  0
 23 18  1  0
M  END
>  <pIC50>  (474) 
7.5

>  <ChEMBL_ID>  (474) 
CHEMBL2153711

>  <document_journal>  (474) 
Eur. J. Med. Chem.

>  <bao_endpoint>  (474) 
BAO_0000190

>  <potential_duplicate>  (474) 
False

>  <uo_units>  (474) 
UO_0000065

>  <canonical_smiles>  (474) 
CN(CC1CCc2nc(N)nc(N)c2N1C=O)c3ccc(cc3)C(=O)N[C@@H](CCC(=O)O)C(=O)O

>  <parent_molecule_chembl_id>  (474) 
CHEMBL2153711

>  <assay_type>  (474) 
B

>  <src_id>  (474) 
1

>  <ligand_efficiency>  (474) 
{u'le': u'0.29', u'bei': u'15.44', u'sei': u'3.65', u'lle': u'7.37'}

>  <standard_flag>  (474) 
True

>  <molecule_chembl_id>  (474) 
CHEMBL2153711

>  <target_organism>  (474) 
Homo sapiens

>  <standard_units>  (474) 
nM

>  <record_id>  (474) 
1732636

>  <document_chembl_id>  (474) 
CHEMBL2150940

>  <bao_format>  (474) 
BAO_0000357

>  <data_validity_description>  (474) 
None

>  <activity_id>  (474) 
12059205

>  <standard_type>  (474) 
IC50

>  <target_chembl_id>  (474) 
CHEMBL202

>  <data_validity_comment>  (474) 
None

>  <published_value>  (474) 
0.032

>  <document_year>  (474) 
2012

>  <target_pref_name>  (474) 
Dihydrofolate reductase

>  <assay_chembl_id>  (474) 
CHEMBL2153943

>  <standard_relation>  (474) 
=

>  <assay_description>  (474) 
Inhibition of human recombinant DHFR using dihydrofolate as substrate by spectrophotometric analysis

>  <published_relation>  (474) 
=

>  <standard_value>  (474) 
32

>  <qudt_units>  (474) 
http://www.openphacts.org/units/Nanomolar

>  <target_tax_id>  (474) 
9606

>  <bao_label>  (474) 
single protein format

>  <published_units>  (474) 
uM

>  <pchembl_value>  (474) 
7.5

>  <published_type>  (474) 
IC50

>  <activity_comment>  (474) 
None

$$$$

     RDKit          

 36 38  0  0  0  0  0  0  0  0999 V2000
    0.0000    0.0000    0.0000 C   0  0  0  0  0  0  0  0  0  0  0  0
    0.0000    0.0000    0.0000 N   0  0  0  0  0  0  0  0  0  0  0  0
    0.0000    0.0000    0.0000 C   0  0  0  0  0  0  0  0  0  0  0  0
    0.0000    0.0000    0.0000 C   0  0  0  0  0  0  0  0  0  0  0  0
    0.0000    0.0000    0.0000 C   0  0  0  0  0  0  0  0  0  0  0  0
    0.0000    0.0000    0.0000 C   0  0  0  0  0  0  0  0  0  0  0  0
    0.0000    0.0000    0.0000 C   0  0  0  0  0  0  0  0  0  0  0  0
    0.0000    0.0000    0.0000 N   0  0  0  0  0  0  0  0  0  0  0  0
    0.0000    0.0000    0.0000 C   0  0  0  0  0  0  0  0  0  0  0  0
    0.0000    0.0000    0.0000 N   0  0  0  0  0  0  0  0  0  0  0  0
    0.0000    0.0000    0.0000 N   0  0  0  0  0  0  0  0  0  0  0  0
    0.0000    0.0000    0.0000 C   0  0  0  0  0  0  0  0  0  0  0  0
    0.0000    0.0000    0.0000 N   0  0  0  0  0  0  0  0  0  0  0  0
    0.0000    0.0000    0.0000 C   0  0  0  0  0  0  0  0  0  0  0  0
    0.0000    0.0000    0.0000 N   0  0  0  0  0  0  0  0  0  0  0  0
    0.0000    0.0000    0.0000 C   0  0  0  0  0  0  0  0  0  0  0  0
    0.0000    0.0000    0.0000 C   0  0  0  0  0  0  0  0  0  0  0  0
    0.0000    0.0000    0.0000 C   0  0  0  0  0  0  0  0  0  0  0  0
    0.0000    0.0000    0.0000 C   0  0  0  0  0  0  0  0  0  0  0  0
    0.0000    0.0000    0.0000 C   0  0  0  0  0  0  0  0  0  0  0  0
    0.0000    0.0000    0.0000 C   0  0  0  0  0  0  0  0  0  0  0  0
    0.0000    0.0000    0.0000 C   0  0  0  0  0  0  0  0  0  0  0  0
    0.0000    0.0000    0.0000 C   0  0  0  0  0  0  0  0  0  0  0  0
    0.0000    0.0000    0.0000 C   0  0  0  0  0  0  0  0  0  0  0  0
    0.0000    0.0000    0.0000 C   0  0  0  0  0  0  0  0  0  0  0  0
    0.0000    0.0000    0.0000 O   0  0  0  0  0  0  0  0  0  0  0  0
    0.0000    0.0000    0.0000 N   0  0  0  0  0  0  0  0  0  0  0  0
    0.0000    0.0000    0.0000 C   0  0  0  0  0  0  0  0  0  0  0  0
    0.0000    0.0000    0.0000 C   0  0  0  0  0  0  0  0  0  0  0  0
    0.0000    0.0000    0.0000 C   0  0  0  0  0  0  0  0  0  0  0  0
    0.0000    0.0000    0.0000 C   0  0  0  0  0  0  0  0  0  0  0  0
    0.0000    0.0000    0.0000 O   0  0  0  0  0  0  0  0  0  0  0  0
    0.0000    0.0000    0.0000 O   0  0  0  0  0  0  0  0  0  0  0  0
    0.0000    0.0000    0.0000 C   0  0  0  0  0  0  0  0  0  0  0  0
    0.0000    0.0000    0.0000 O   0  0  0  0  0  0  0  0  0  0  0  0
    0.0000    0.0000    0.0000 O   0  0  0  0  0  0  0  0  0  0  0  0
  1  2  1  0
  2  3  1  0
  3  4  1  0
  4  5  1  0
  5  6  1  0
  6  7  1  0
  7  8  2  0
  8  9  1  0
  9 10  1  0
  9 11  2  0
 11 12  1  0
 12 13  1  0
 12 14  2  0
 14 15  1  0
 15 16  1  0
 16 17  1  0
 17 18  2  0
  2 19  1  0
 19 20  2  0
 20 21  1  0
 21 22  2  0
 22 23  1  0
 23 24  2  0
 22 25  1  0
 25 26  2  0
 25 27  1  0
 27 28  1  0
 28 29  1  0
 29 30  1  0
 30 31  1  0
 31 32  2  0
 31 33  1  0
 28 34  1  0
 34 35  2  0
 34 36  1  0
 15  4  1  0
 14  7  1  0
 24 19  1  0
M  END
>  <pIC50>  (475) 
6.38

>  <ChEMBL_ID>  (475) 
CHEMBL2153705

>  <document_journal>  (475) 
Eur. J. Med. Chem.

>  <bao_endpoint>  (475) 
BAO_0000190

>  <potential_duplicate>  (475) 
False

>  <uo_units>  (475) 
UO_0000065

>  <canonical_smiles>  (475) 
CN(CC1CCc2nc(N)nc(N)c2N1CC=C)c3ccc(cc3)C(=O)N[C@@H](CCC(=O)O)C(=O)O

>  <parent_molecule_chembl_id>  (475) 
CHEMBL2153705

>  <assay_type>  (475) 
B

>  <src_id>  (475) 
1

>  <ligand_efficiency>  (475) 
{u'le': u'0.24', u'bei': u'12.82', u'sei': u'3.39', u'lle': u'4.73'}

>  <standard_flag>  (475) 
True

>  <molecule_chembl_id>  (475) 
CHEMBL2153705

>  <target_organism>  (475) 
Homo sapiens

>  <standard_units>  (475) 
nM

>  <record_id>  (475) 
1732629

>  <document_chembl_id>  (475) 
CHEMBL2150940

>  <bao_format>  (475) 
BAO_0000357

>  <data_validity_description>  (475) 
None

>  <activity_id>  (475) 
12060126

>  <standard_type>  (475) 
IC50

>  <target_chembl_id>  (475) 
CHEMBL202

>  <data_validity_comment>  (475) 
None

>  <published_value>  (475) 
0.42

>  <document_year>  (475) 
2012

>  <target_pref_name>  (475) 
Dihydrofolate reductase

>  <assay_chembl_id>  (475) 
CHEMBL2153943

>  <standard_relation>  (475) 
=

>  <assay_description>  (475) 
Inhibition of human recombinant DHFR using dihydrofolate as substrate by spectrophotometric analysis

>  <published_relation>  (475) 
=

>  <standard_value>  (475) 
420

>  <qudt_units>  (475) 
http://www.openphacts.org/units/Nanomolar

>  <target_tax_id>  (475) 
9606

>  <bao_label>  (475) 
single protein format

>  <published_units>  (475) 
uM

>  <pchembl_value>  (475) 
6.38

>  <published_type>  (475) 
IC50

>  <activity_comment>  (475) 
None

$$$$

     RDKit          

 35 37  0  0  0  0  0  0  0  0999 V2000
    0.0000    0.0000    0.0000 C   0  0  0  0  0  0  0  0  0  0  0  0
    0.0000    0.0000    0.0000 C   0  0  0  0  0  0  0  0  0  0  0  0
    0.0000    0.0000    0.0000 O   0  0  0  0  0  0  0  0  0  0  0  0
    0.0000    0.0000    0.0000 N   0  0  0  0  0  0  0  0  0  0  0  0
    0.0000    0.0000    0.0000 C   0  0  0  0  0  0  0  0  0  0  0  0
    0.0000    0.0000    0.0000 C   0  0  0  0  0  0  0  0  0  0  0  0
    0.0000    0.0000    0.0000 C   0  0  0  0  0  0  0  0  0  0  0  0
    0.0000    0.0000    0.0000 C   0  0  0  0  0  0  0  0  0  0  0  0
    0.0000    0.0000    0.0000 C   0  0  0  0  0  0  0  0  0  0  0  0
    0.0000    0.0000    0.0000 N   0  0  0  0  0  0  0  0  0  0  0  0
    0.0000    0.0000    0.0000 C   0  0  0  0  0  0  0  0  0  0  0  0
    0.0000    0.0000    0.0000 N   0  0  0  0  0  0  0  0  0  0  0  0
    0.0000    0.0000    0.0000 N   0  0  0  0  0  0  0  0  0  0  0  0
    0.0000    0.0000    0.0000 C   0  0  0  0  0  0  0  0  0  0  0  0
    0.0000    0.0000    0.0000 N   0  0  0  0  0  0  0  0  0  0  0  0
    0.0000    0.0000    0.0000 C   0  0  0  0  0  0  0  0  0  0  0  0
    0.0000    0.0000    0.0000 N   0  0  0  0  0  0  0  0  0  0  0  0
    0.0000    0.0000    0.0000 C   0  0  0  0  0  0  0  0  0  0  0  0
    0.0000    0.0000    0.0000 C   0  0  0  0  0  0  0  0  0  0  0  0
    0.0000    0.0000    0.0000 C   0  0  0  0  0  0  0  0  0  0  0  0
    0.0000    0.0000    0.0000 C   0  0  0  0  0  0  0  0  0  0  0  0
    0.0000    0.0000    0.0000 C   0  0  0  0  0  0  0  0  0  0  0  0
    0.0000    0.0000    0.0000 C   0  0  0  0  0  0  0  0  0  0  0  0
    0.0000    0.0000    0.0000 C   0  0  0  0  0  0  0  0  0  0  0  0
    0.0000    0.0000    0.0000 O   0  0  0  0  0  0  0  0  0  0  0  0
    0.0000    0.0000    0.0000 N   0  0  0  0  0  0  0  0  0  0  0  0
    0.0000    0.0000    0.0000 C   0  0  0  0  0  0  0  0  0  0  0  0
    0.0000    0.0000    0.0000 C   0  0  0  0  0  0  0  0  0  0  0  0
    0.0000    0.0000    0.0000 C   0  0  0  0  0  0  0  0  0  0  0  0
    0.0000    0.0000    0.0000 C   0  0  0  0  0  0  0  0  0  0  0  0
    0.0000    0.0000    0.0000 O   0  0  0  0  0  0  0  0  0  0  0  0
    0.0000    0.0000    0.0000 O   0  0  0  0  0  0  0  0  0  0  0  0
    0.0000    0.0000    0.0000 C   0  0  0  0  0  0  0  0  0  0  0  0
    0.0000    0.0000    0.0000 O   0  0  0  0  0  0  0  0  0  0  0  0
    0.0000    0.0000    0.0000 O   0  0  0  0  0  0  0  0  0  0  0  0
  1  2  1  0
  2  3  2  0
  2  4  1  0
  4  5  1  0
  5  6  1  0
  6  7  1  0
  7  8  1  0
  8  9  1  0
  9 10  2  0
 10 11  1  0
 11 12  1  0
 11 13  2  0
 13 14  1  0
 14 15  1  0
 14 16  2  0
 16 17  1  0
  4 18  1  0
 18 19  2  0
 19 20  1  0
 20 21  2  0
 21 22  1  0
 22 23  2  0
 21 24  1  0
 24 25  2  0
 24 26  1  0
 26 27  1  0
 27 28  1  0
 28 29  1  0
 29 30  1  0
 30 31  2  0
 30 32  1  0
 27 33  1  0
 33 34  2  0
 33 35  1  0
 17  6  1  0
 16  9  1  0
 23 18  1  0
M  END
>  <pIC50>  (476) 
7.48

>  <ChEMBL_ID>  (476) 
CHEMBL2151066

>  <document_journal>  (476) 
Eur. J. Med. Chem.

>  <bao_endpoint>  (476) 
BAO_0000190

>  <potential_duplicate>  (476) 
False

>  <uo_units>  (476) 
UO_0000065

>  <canonical_smiles>  (476) 
CC(=O)N(CC1CCc2nc(N)nc(N)c2N1)c3ccc(cc3)C(=O)N[C@@H](CCC(=O)O)C(=O)O

>  <parent_molecule_chembl_id>  (476) 
CHEMBL2151066

>  <assay_type>  (476) 
B

>  <src_id>  (476) 
1

>  <ligand_efficiency>  (476) 
{u'le': u'0.29', u'bei': u'15.41', u'sei': u'3.5', u'lle': u'7.64'}

>  <standard_flag>  (476) 
True

>  <molecule_chembl_id>  (476) 
CHEMBL2151066

>  <target_organism>  (476) 
Homo sapiens

>  <standard_units>  (476) 
nM

>  <record_id>  (476) 
1732634

>  <document_chembl_id>  (476) 
CHEMBL2150940

>  <bao_format>  (476) 
BAO_0000357

>  <data_validity_description>  (476) 
None

>  <activity_id>  (476) 
12060127

>  <standard_type>  (476) 
IC50

>  <target_chembl_id>  (476) 
CHEMBL202

>  <data_validity_comment>  (476) 
None

>  <published_value>  (476) 
0.033

>  <document_year>  (476) 
2012

>  <target_pref_name>  (476) 
Dihydrofolate reductase

>  <assay_chembl_id>  (476) 
CHEMBL2153943

>  <standard_relation>  (476) 
=

>  <assay_description>  (476) 
Inhibition of human recombinant DHFR using dihydrofolate as substrate by spectrophotometric analysis

>  <published_relation>  (476) 
=

>  <standard_value>  (476) 
33

>  <qudt_units>  (476) 
http://www.openphacts.org/units/Nanomolar

>  <target_tax_id>  (476) 
9606

>  <bao_label>  (476) 
single protein format

>  <published_units>  (476) 
uM

>  <pchembl_value>  (476) 
7.48

>  <published_type>  (476) 
IC50

>  <activity_comment>  (476) 
None

$$$$

     RDKit          

 34 36  0  0  0  0  0  0  0  0999 V2000
    0.0000    0.0000    0.0000 C   0  0  0  0  0  0  0  0  0  0  0  0
    0.0000    0.0000    0.0000 C   0  0  0  0  0  0  0  0  0  0  0  0
    0.0000    0.0000    0.0000 O   0  0  0  0  0  0  0  0  0  0  0  0
    0.0000    0.0000    0.0000 C   0  0  0  0  0  0  0  0  0  0  0  0
    0.0000    0.0000    0.0000 O   0  0  0  0  0  0  0  0  0  0  0  0
    0.0000    0.0000    0.0000 C   0  0  0  0  0  0  0  0  0  0  0  0
    0.0000    0.0000    0.0000 C   0  0  0  0  0  0  0  0  0  0  0  0
    0.0000    0.0000    0.0000 C   0  0  0  0  0  0  0  0  0  0  0  0
    0.0000    0.0000    0.0000 C   0  0  0  0  0  0  0  0  0  0  0  0
    0.0000    0.0000    0.0000 C   0  0  0  0  0  0  0  0  0  0  0  0
    0.0000    0.0000    0.0000 C   0  0  0  0  0  0  0  0  0  0  0  0
    0.0000    0.0000    0.0000 O   0  0  0  0  0  0  0  0  0  0  0  0
    0.0000    0.0000    0.0000 C   0  0  0  0  0  0  0  0  0  0  0  0
    0.0000    0.0000    0.0000 C   0  0  0  0  0  0  0  0  0  0  0  0
    0.0000    0.0000    0.0000 C   0  0  0  0  0  0  0  0  0  0  0  0
    0.0000    0.0000    0.0000 S   0  0  0  0  0  0  0  0  0  0  0  0
    0.0000    0.0000    0.0000 C   0  0  0  0  0  0  0  0  0  0  0  0
    0.0000    0.0000    0.0000 N   0  0  0  0  0  0  0  0  0  0  0  0
    0.0000    0.0000    0.0000 C   0  0  0  0  0  0  0  0  0  0  0  0
    0.0000    0.0000    0.0000 C   0  0  0  0  0  0  0  0  0  0  0  0
    0.0000    0.0000    0.0000 C   0  0  0  0  0  0  0  0  0  0  0  0
    0.0000    0.0000    0.0000 C   0  0  0  0  0  0  0  0  0  0  0  0
    0.0000    0.0000    0.0000 N   0  0  0  0  0  0  0  0  0  0  0  0
    0.0000    0.0000    0.0000 C   0  0  0  0  0  0  0  0  0  0  0  0
    0.0000    0.0000    0.0000 O   0  0  0  0  0  0  0  0  0  0  0  0
    0.0000    0.0000    0.0000 O   0  0  0  0  0  0  0  0  0  0  0  0
    0.0000    0.0000    0.0000 C   0  0  0  0  0  0  0  0  0  0  0  0
    0.0000    0.0000    0.0000 C   0  0  0  0  0  0  0  0  0  0  0  0
    0.0000    0.0000    0.0000 C   0  0  0  0  0  0  0  0  0  0  0  0
    0.0000    0.0000    0.0000 C   0  0  0  0  0  0  0  0  0  0  0  0
    0.0000    0.0000    0.0000 C   0  0  0  0  0  0  0  0  0  0  0  0
    0.0000    0.0000    0.0000 C   0  0  0  0  0  0  0  0  0  0  0  0
    0.0000    0.0000    0.0000 C   0  0  0  0  0  0  0  0  0  0  0  0
    0.0000    0.0000    0.0000 C   0  0  0  0  0  0  0  0  0  0  0  0
  1  2  1  0
  2  3  1  0
  3  4  1  0
  4  5  2  0
  4  6  1  0
  6  7  2  0
  7  8  1  0
  8  9  2  0
  9 10  1  0
 10 11  2  0
 11 12  1  0
 12 13  1  0
 11 14  1  0
 14 15  2  0
  6 16  1  0
 16 17  1  0
 17 18  2  0
 18 19  1  0
 19 20  1  0
 20 21  2  0
 21 22  1  0
 21 23  1  0
 20 24  1  0
 24 25  2  0
 24 26  1  0
 26 27  1  0
 27 28  1  0
 19 29  1  0
 29 30  2  0
 30 31  1  0
 31 32  2  0
 32 33  1  0
 33 34  2  0
 15  8  1  0
 23 17  1  0
 34 29  1  0
M  END
>  <pIC50>  (477) 
8.0

>  <ChEMBL_ID>  (477) 
CHEMBL2261696

>  <document_journal>  (477) 
Med Chem Res

>  <bao_endpoint>  (477) 
BAO_0000190

>  <potential_duplicate>  (477) 
False

>  <uo_units>  (477) 
UO_0000065

>  <canonical_smiles>  (477) 
CCOC(=O)\C(=C\c1ccc(OC)cc1)\SC2=NC(C(=C(C)N2)C(=O)OCC)c3ccccc3

>  <parent_molecule_chembl_id>  (477) 
CHEMBL2261696

>  <assay_type>  (477) 
B

>  <src_id>  (477) 
1

>  <ligand_efficiency>  (477) 
{u'le': u'0.32', u'bei': u'16.65', u'sei': u'7.17', u'lle': u'3.18'}

>  <standard_flag>  (477) 
True

>  <molecule_chembl_id>  (477) 
CHEMBL2261696

>  <target_organism>  (477) 
Homo sapiens

>  <standard_units>  (477) 
nM

>  <record_id>  (477) 
1808429

>  <document_chembl_id>  (477) 
CHEMBL3045961

>  <bao_format>  (477) 
BAO_0000357

>  <data_validity_description>  (477) 
None

>  <activity_id>  (477) 
12472601

>  <standard_type>  (477) 
IC50

>  <target_chembl_id>  (477) 
CHEMBL202

>  <data_validity_comment>  (477) 
None

>  <published_value>  (477) 
0.01

>  <document_year>  (477) 
2008

>  <target_pref_name>  (477) 
Dihydrofolate reductase

>  <assay_chembl_id>  (477) 
CHEMBL3056824

>  <standard_relation>  (477) 
=

>  <assay_description>  (477) 
Inhibition of Homo sapiens (human) dihydrofolate reductase using dihydrofolate as substrate incubated for 5 min prior to substrate addition by spectrophotometric assay

>  <published_relation>  (477) 
=

>  <standard_value>  (477) 
10

>  <qudt_units>  (477) 
http://www.openphacts.org/units/Nanomolar

>  <target_tax_id>  (477) 
9606

>  <bao_label>  (477) 
single protein format

>  <published_units>  (477) 
uM

>  <pchembl_value>  (477) 
8

>  <published_type>  (477) 
IC50

>  <activity_comment>  (477) 
None

$$$$

     RDKit          

 27 28  0  0  0  0  0  0  0  0999 V2000
    0.0000    0.0000    0.0000 C   0  0  0  0  0  0  0  0  0  0  0  0
    0.0000    0.0000    0.0000 C   0  0  0  0  0  0  0  0  0  0  0  0
    0.0000    0.0000    0.0000 O   0  0  0  0  0  0  0  0  0  0  0  0
    0.0000    0.0000    0.0000 C   0  0  0  0  0  0  0  0  0  0  0  0
    0.0000    0.0000    0.0000 O   0  0  0  0  0  0  0  0  0  0  0  0
    0.0000    0.0000    0.0000 C   0  0  0  0  0  0  0  0  0  0  0  0
    0.0000    0.0000    0.0000 S   0  0  0  0  0  0  0  0  0  0  0  0
    0.0000    0.0000    0.0000 C   0  0  0  0  0  0  0  0  0  0  0  0
    0.0000    0.0000    0.0000 N   0  0  0  0  0  0  0  0  0  0  0  0
    0.0000    0.0000    0.0000 C   0  0  0  0  0  0  0  0  0  0  0  0
    0.0000    0.0000    0.0000 C   0  0  0  0  0  0  0  0  0  0  0  0
    0.0000    0.0000    0.0000 C   0  0  0  0  0  0  0  0  0  0  0  0
    0.0000    0.0000    0.0000 C   0  0  0  0  0  0  0  0  0  0  0  0
    0.0000    0.0000    0.0000 N   0  0  0  0  0  0  0  0  0  0  0  0
    0.0000    0.0000    0.0000 C   0  0  0  0  0  0  0  0  0  0  0  0
    0.0000    0.0000    0.0000 O   0  0  0  0  0  0  0  0  0  0  0  0
    0.0000    0.0000    0.0000 O   0  0  0  0  0  0  0  0  0  0  0  0
    0.0000    0.0000    0.0000 C   0  0  0  0  0  0  0  0  0  0  0  0
    0.0000    0.0000    0.0000 C   0  0  0  0  0  0  0  0  0  0  0  0
    0.0000    0.0000    0.0000 C   0  0  0  0  0  0  0  0  0  0  0  0
    0.0000    0.0000    0.0000 C   0  0  0  0  0  0  0  0  0  0  0  0
    0.0000    0.0000    0.0000 C   0  0  0  0  0  0  0  0  0  0  0  0
    0.0000    0.0000    0.0000 C   0  0  0  0  0  0  0  0  0  0  0  0
    0.0000    0.0000    0.0000 C   0  0  0  0  0  0  0  0  0  0  0  0
    0.0000    0.0000    0.0000 C   0  0  0  0  0  0  0  0  0  0  0  0
    0.0000    0.0000    0.0000 O   0  0  0  0  0  0  0  0  0  0  0  0
    0.0000    0.0000    0.0000 C   0  0  0  0  0  0  0  0  0  0  0  0
  1  2  1  0
  2  3  1  0
  3  4  1  0
  4  5  2  0
  4  6  1  0
  6  7  1  0
  7  8  1  0
  8  9  2  0
  9 10  1  0
 10 11  1  0
 11 12  2  0
 12 13  1  0
 12 14  1  0
 11 15  1  0
 15 16  2  0
 15 17  1  0
 17 18  1  0
 18 19  1  0
 10 20  1  0
 20 21  2  0
 21 22  1  0
 22 23  2  0
 23 24  1  0
 24 25  2  0
 25 26  1  0
 26 27  1  0
 14  8  1  0
 25 20  1  0
M  END
>  <pIC50>  (478) 
5.14

>  <ChEMBL_ID>  (478) 
CHEMBL2261695

>  <document_journal>  (478) 
Med Chem Res

>  <bao_endpoint>  (478) 
BAO_0000190

>  <potential_duplicate>  (478) 
False

>  <uo_units>  (478) 
UO_0000065

>  <canonical_smiles>  (478) 
CCOC(=O)CSC1=NC(C(=C(C)N1)C(=O)OCC)c2ccccc2OC

>  <parent_molecule_chembl_id>  (478) 
CHEMBL2261695

>  <assay_type>  (478) 
B

>  <src_id>  (478) 
1

>  <ligand_efficiency>  (478) 
{u'le': u'0.26', u'bei': u'13.09', u'sei': u'4.61', u'lle': u'2.22'}

>  <standard_flag>  (478) 
True

>  <molecule_chembl_id>  (478) 
CHEMBL2261695

>  <target_organism>  (478) 
Homo sapiens

>  <standard_units>  (478) 
nM

>  <record_id>  (478) 
1808428

>  <document_chembl_id>  (478) 
CHEMBL3045961

>  <bao_format>  (478) 
BAO_0000357

>  <data_validity_description>  (478) 
None

>  <activity_id>  (478) 
12472602

>  <standard_type>  (478) 
IC50

>  <target_chembl_id>  (478) 
CHEMBL202

>  <data_validity_comment>  (478) 
None

>  <published_value>  (478) 
7.3

>  <document_year>  (478) 
2008

>  <target_pref_name>  (478) 
Dihydrofolate reductase

>  <assay_chembl_id>  (478) 
CHEMBL3056824

>  <standard_relation>  (478) 
=

>  <assay_description>  (478) 
Inhibition of Homo sapiens (human) dihydrofolate reductase using dihydrofolate as substrate incubated for 5 min prior to substrate addition by spectrophotometric assay

>  <published_relation>  (478) 
=

>  <standard_value>  (478) 
7300

>  <qudt_units>  (478) 
http://www.openphacts.org/units/Nanomolar

>  <target_tax_id>  (478) 
9606

>  <bao_label>  (478) 
single protein format

>  <published_units>  (478) 
uM

>  <pchembl_value>  (478) 
5.14

>  <published_type>  (478) 
IC50

>  <activity_comment>  (478) 
None

$$$$

     RDKit          

 25 26  0  0  0  0  0  0  0  0999 V2000
    0.0000    0.0000    0.0000 C   0  0  0  0  0  0  0  0  0  0  0  0
    0.0000    0.0000    0.0000 C   0  0  0  0  0  0  0  0  0  0  0  0
    0.0000    0.0000    0.0000 O   0  0  0  0  0  0  0  0  0  0  0  0
    0.0000    0.0000    0.0000 C   0  0  0  0  0  0  0  0  0  0  0  0
    0.0000    0.0000    0.0000 O   0  0  0  0  0  0  0  0  0  0  0  0
    0.0000    0.0000    0.0000 C   0  0  0  0  0  0  0  0  0  0  0  0
    0.0000    0.0000    0.0000 S   0  0  0  0  0  0  0  0  0  0  0  0
    0.0000    0.0000    0.0000 C   0  0  0  0  0  0  0  0  0  0  0  0
    0.0000    0.0000    0.0000 N   0  0  0  0  0  0  0  0  0  0  0  0
    0.0000    0.0000    0.0000 C   0  0  0  0  0  0  0  0  0  0  0  0
    0.0000    0.0000    0.0000 C   0  0  0  0  0  0  0  0  0  0  0  0
    0.0000    0.0000    0.0000 C   0  0  0  0  0  0  0  0  0  0  0  0
    0.0000    0.0000    0.0000 C   0  0  0  0  0  0  0  0  0  0  0  0
    0.0000    0.0000    0.0000 N   0  0  0  0  0  0  0  0  0  0  0  0
    0.0000    0.0000    0.0000 C   0  0  0  0  0  0  0  0  0  0  0  0
    0.0000    0.0000    0.0000 O   0  0  0  0  0  0  0  0  0  0  0  0
    0.0000    0.0000    0.0000 O   0  0  0  0  0  0  0  0  0  0  0  0
    0.0000    0.0000    0.0000 C   0  0  0  0  0  0  0  0  0  0  0  0
    0.0000    0.0000    0.0000 C   0  0  0  0  0  0  0  0  0  0  0  0
    0.0000    0.0000    0.0000 C   0  0  0  0  0  0  0  0  0  0  0  0
    0.0000    0.0000    0.0000 C   0  0  0  0  0  0  0  0  0  0  0  0
    0.0000    0.0000    0.0000 C   0  0  0  0  0  0  0  0  0  0  0  0
    0.0000    0.0000    0.0000 C   0  0  0  0  0  0  0  0  0  0  0  0
    0.0000    0.0000    0.0000 C   0  0  0  0  0  0  0  0  0  0  0  0
    0.0000    0.0000    0.0000 C   0  0  0  0  0  0  0  0  0  0  0  0
  1  2  1  0
  2  3  1  0
  3  4  1  0
  4  5  2  0
  4  6  1  0
  6  7  1  0
  7  8  1  0
  8  9  2  0
  9 10  1  0
 10 11  1  0
 11 12  2  0
 12 13  1  0
 12 14  1  0
 11 15  1  0
 15 16  2  0
 15 17  1  0
 17 18  1  0
 18 19  1  0
 10 20  1  0
 20 21  2  0
 21 22  1  0
 22 23  2  0
 23 24  1  0
 24 25  2  0
 14  8  1  0
 25 20  1  0
M  END
>  <pIC50>  (479) 
6.08

>  <ChEMBL_ID>  (479) 
CHEMBL2261694

>  <document_journal>  (479) 
Med Chem Res

>  <bao_endpoint>  (479) 
BAO_0000190

>  <potential_duplicate>  (479) 
False

>  <uo_units>  (479) 
UO_0000065

>  <canonical_smiles>  (479) 
CCOC(=O)CSC1=NC(C(=C(C)N1)C(=O)OCC)c2ccccc2

>  <parent_molecule_chembl_id>  (479) 
CHEMBL2261694

>  <assay_type>  (479) 
B

>  <src_id>  (479) 
1

>  <ligand_efficiency>  (479) 
{u'le': u'0.33', u'bei': u'16.78', u'sei': u'5.94', u'lle': u'3.14'}

>  <standard_flag>  (479) 
True

>  <molecule_chembl_id>  (479) 
CHEMBL2261694

>  <target_organism>  (479) 
Homo sapiens

>  <standard_units>  (479) 
nM

>  <record_id>  (479) 
1808427

>  <document_chembl_id>  (479) 
CHEMBL3045961

>  <bao_format>  (479) 
BAO_0000357

>  <data_validity_description>  (479) 
None

>  <activity_id>  (479) 
12472603

>  <standard_type>  (479) 
IC50

>  <target_chembl_id>  (479) 
CHEMBL202

>  <data_validity_comment>  (479) 
None

>  <published_value>  (479) 
0.83

>  <document_year>  (479) 
2008

>  <target_pref_name>  (479) 
Dihydrofolate reductase

>  <assay_chembl_id>  (479) 
CHEMBL3056824

>  <standard_relation>  (479) 
=

>  <assay_description>  (479) 
Inhibition of Homo sapiens (human) dihydrofolate reductase using dihydrofolate as substrate incubated for 5 min prior to substrate addition by spectrophotometric assay

>  <published_relation>  (479) 
=

>  <standard_value>  (479) 
830

>  <qudt_units>  (479) 
http://www.openphacts.org/units/Nanomolar

>  <target_tax_id>  (479) 
9606

>  <bao_label>  (479) 
single protein format

>  <published_units>  (479) 
uM

>  <pchembl_value>  (479) 
6.08

>  <published_type>  (479) 
IC50

>  <activity_comment>  (479) 
None

$$$$

     RDKit          

 32 34  0  0  0  0  0  0  0  0999 V2000
    0.0000    0.0000    0.0000 C   0  0  0  0  0  0  0  0  0  0  0  0
    0.0000    0.0000    0.0000 C   0  0  0  0  0  0  0  0  0  0  0  0
    0.0000    0.0000    0.0000 O   0  0  0  0  0  0  0  0  0  0  0  0
    0.0000    0.0000    0.0000 C   0  0  0  0  0  0  0  0  0  0  0  0
    0.0000    0.0000    0.0000 O   0  0  0  0  0  0  0  0  0  0  0  0
    0.0000    0.0000    0.0000 C   0  0  0  0  0  0  0  0  0  0  0  0
    0.0000    0.0000    0.0000 C   0  0  0  0  0  0  0  0  0  0  0  0
    0.0000    0.0000    0.0000 C   0  0  0  0  0  0  0  0  0  0  0  0
    0.0000    0.0000    0.0000 N   0  0  0  0  0  0  0  0  0  0  0  0
    0.0000    0.0000    0.0000 C   0  0  0  0  0  0  0  0  0  0  0  0
    0.0000    0.0000    0.0000 N   0  0  0  0  0  0  0  0  0  0  0  0
    0.0000    0.0000    0.0000 C   0  0  0  0  0  0  0  0  0  0  0  0
    0.0000    0.0000    0.0000 C   0  0  0  0  0  0  0  0  0  0  0  0
    0.0000    0.0000    0.0000 C   0  0  0  0  0  0  0  0  0  0  0  0
    0.0000    0.0000    0.0000 C   0  0  0  0  0  0  0  0  0  0  0  0
    0.0000    0.0000    0.0000 C   0  0  0  0  0  0  0  0  0  0  0  0
    0.0000    0.0000    0.0000 C   0  0  0  0  0  0  0  0  0  0  0  0
    0.0000    0.0000    0.0000 C   0  0  0  0  0  0  0  0  0  0  0  0
    0.0000    0.0000    0.0000 S   0  0  0  0  0  0  0  0  0  0  0  0
    0.0000    0.0000    0.0000 C   0  0  0  0  0  0  0  0  0  0  0  0
    0.0000    0.0000    0.0000 C   0  0  0  0  0  0  0  0  0  0  0  0
    0.0000    0.0000    0.0000 O   0  0  0  0  0  0  0  0  0  0  0  0
    0.0000    0.0000    0.0000 C   0  0  0  0  0  0  0  0  0  0  0  0
    0.0000    0.0000    0.0000 C   0  0  0  0  0  0  0  0  0  0  0  0
    0.0000    0.0000    0.0000 C   0  0  0  0  0  0  0  0  0  0  0  0
    0.0000    0.0000    0.0000 C   0  0  0  0  0  0  0  0  0  0  0  0
    0.0000    0.0000    0.0000 Cl  0  0  0  0  0  0  0  0  0  0  0  0
    0.0000    0.0000    0.0000 C   0  0  0  0  0  0  0  0  0  0  0  0
    0.0000    0.0000    0.0000 C   0  0  0  0  0  0  0  0  0  0  0  0
    0.0000    0.0000    0.0000 N   0  0  0  0  0  0  0  0  0  0  0  0
    0.0000    0.0000    0.0000 O   0  0  0  0  0  0  0  0  0  0  0  0
    0.0000    0.0000    0.0000 O   0  0  0  0  0  0  0  0  0  0  0  0
  1  2  1  0
  2  3  1  0
  3  4  1  0
  4  5  2  0
  4  6  1  0
  6  7  2  0
  7  8  1  0
  7  9  1  0
  9 10  2  0
 10 11  1  0
 11 12  1  0
 12 13  1  0
 13 14  2  0
 14 15  1  0
 15 16  2  0
 16 17  1  0
 17 18  2  0
 10 19  1  0
 19 20  1  0
 20 21  1  0
 21 22  2  0
 21 23  1  0
 23 24  2  0
 24 25  1  0
 25 26  2  0
 26 27  1  0
 26 28  1  0
 28 29  2  0
 28 30  1  0
 30 31  2  0
 30 32  1  0
 12  6  1  0
 18 13  1  0
 29 23  1  0
M  CHG  2  30   1  32  -1
M  END
>  <pIC50>  (480) 
5.52

>  <ChEMBL_ID>  (480) 
CHEMBL2261693

>  <document_journal>  (480) 
Med Chem Res

>  <bao_endpoint>  (480) 
BAO_0000190

>  <potential_duplicate>  (480) 
False

>  <uo_units>  (480) 
UO_0000065

>  <canonical_smiles>  (480) 
CCOC(=O)C1=C(C)N=C(NC1c2ccccc2)SCC(=O)c3ccc(Cl)c(c3)[N+](=O)[O-]

>  <parent_molecule_chembl_id>  (480) 
CHEMBL2261693

>  <assay_type>  (480) 
B

>  <src_id>  (480) 
1

>  <ligand_efficiency>  (480) 
{u'le': u'0.24', u'bei': u'11.65', u'sei': u'3.98', u'lle': u'0.83'}

>  <standard_flag>  (480) 
True

>  <molecule_chembl_id>  (480) 
CHEMBL2261693

>  <target_organism>  (480) 
Homo sapiens

>  <standard_units>  (480) 
nM

>  <record_id>  (480) 
1808426

>  <document_chembl_id>  (480) 
CHEMBL3045961

>  <bao_format>  (480) 
BAO_0000357

>  <data_validity_description>  (480) 
None

>  <activity_id>  (480) 
12472604

>  <standard_type>  (480) 
IC50

>  <target_chembl_id>  (480) 
CHEMBL202

>  <data_validity_comment>  (480) 
None

>  <published_value>  (480) 
3

>  <document_year>  (480) 
2008

>  <target_pref_name>  (480) 
Dihydrofolate reductase

>  <assay_chembl_id>  (480) 
CHEMBL3056824

>  <standard_relation>  (480) 
=

>  <assay_description>  (480) 
Inhibition of Homo sapiens (human) dihydrofolate reductase using dihydrofolate as substrate incubated for 5 min prior to substrate addition by spectrophotometric assay

>  <published_relation>  (480) 
=

>  <standard_value>  (480) 
3000

>  <qudt_units>  (480) 
http://www.openphacts.org/units/Nanomolar

>  <target_tax_id>  (480) 
9606

>  <bao_label>  (480) 
single protein format

>  <published_units>  (480) 
uM

>  <pchembl_value>  (480) 
5.52

>  <published_type>  (480) 
IC50

>  <activity_comment>  (480) 
None

$$$$

     RDKit          

 26 27  0  0  0  0  0  0  0  0999 V2000
    0.0000    0.0000    0.0000 C   0  0  0  0  0  0  0  0  0  0  0  0
    0.0000    0.0000    0.0000 C   0  0  0  0  0  0  0  0  0  0  0  0
    0.0000    0.0000    0.0000 O   0  0  0  0  0  0  0  0  0  0  0  0
    0.0000    0.0000    0.0000 C   0  0  0  0  0  0  0  0  0  0  0  0
    0.0000    0.0000    0.0000 O   0  0  0  0  0  0  0  0  0  0  0  0
    0.0000    0.0000    0.0000 C   0  0  0  0  0  0  0  0  0  0  0  0
    0.0000    0.0000    0.0000 C   0  0  0  0  0  0  0  0  0  0  0  0
    0.0000    0.0000    0.0000 C   0  0  0  0  0  0  0  0  0  0  0  0
    0.0000    0.0000    0.0000 N   0  0  0  0  0  0  0  0  0  0  0  0
    0.0000    0.0000    0.0000 C   0  0  0  0  0  0  0  0  0  0  0  0
    0.0000    0.0000    0.0000 N   0  0  0  0  0  0  0  0  0  0  0  0
    0.0000    0.0000    0.0000 C   0  0  0  0  0  0  0  0  0  0  0  0
    0.0000    0.0000    0.0000 C   0  0  0  0  0  0  0  0  0  0  0  0
    0.0000    0.0000    0.0000 C   0  0  0  0  0  0  0  0  0  0  0  0
    0.0000    0.0000    0.0000 C   0  0  0  0  0  0  0  0  0  0  0  0
    0.0000    0.0000    0.0000 C   0  0  0  0  0  0  0  0  0  0  0  0
    0.0000    0.0000    0.0000 C   0  0  0  0  0  0  0  0  0  0  0  0
    0.0000    0.0000    0.0000 C   0  0  0  0  0  0  0  0  0  0  0  0
    0.0000    0.0000    0.0000 O   0  0  0  0  0  0  0  0  0  0  0  0
    0.0000    0.0000    0.0000 C   0  0  0  0  0  0  0  0  0  0  0  0
    0.0000    0.0000    0.0000 S   0  0  0  0  0  0  0  0  0  0  0  0
    0.0000    0.0000    0.0000 C   0  0  0  0  0  0  0  0  0  0  0  0
    0.0000    0.0000    0.0000 C   0  0  0  0  0  0  0  0  0  0  0  0
    0.0000    0.0000    0.0000 C   0  0  0  0  0  0  0  0  0  0  0  0
    0.0000    0.0000    0.0000 O   0  0  0  0  0  0  0  0  0  0  0  0
    0.0000    0.0000    0.0000 O   0  0  0  0  0  0  0  0  0  0  0  0
  1  2  1  0
  2  3  1  0
  3  4  1  0
  4  5  2  0
  4  6  1  0
  6  7  2  0
  7  8  1  0
  7  9  1  0
  9 10  2  0
 10 11  1  0
 11 12  1  0
 12 13  1  0
 13 14  2  0
 14 15  1  0
 15 16  2  0
 16 17  1  0
 17 18  2  0
 18 19  1  0
 19 20  1  0
 10 21  1  0
 21 22  1  0
 22 23  1  0
 23 24  1  0
 24 25  2  0
 24 26  1  0
 12  6  1  0
 18 13  1  0
M  END
>  <pIC50>  (481) 
8.05

>  <ChEMBL_ID>  (481) 
CHEMBL2261434

>  <document_journal>  (481) 
Med Chem Res

>  <bao_endpoint>  (481) 
BAO_0000190

>  <potential_duplicate>  (481) 
False

>  <uo_units>  (481) 
UO_0000065

>  <canonical_smiles>  (481) 
CCOC(=O)C1=C(C)N=C(NC1c2ccccc2OC)SCCC(=O)O

>  <parent_molecule_chembl_id>  (481) 
CHEMBL2261434

>  <assay_type>  (481) 
B

>  <src_id>  (481) 
1

>  <ligand_efficiency>  (481) 
{u'le': u'0.42', u'bei': u'21.27', u'sei': u'6.57', u'lle': u'5.46'}

>  <standard_flag>  (481) 
True

>  <molecule_chembl_id>  (481) 
CHEMBL2261434

>  <target_organism>  (481) 
Homo sapiens

>  <standard_units>  (481) 
nM

>  <record_id>  (481) 
1808061

>  <document_chembl_id>  (481) 
CHEMBL3045961

>  <bao_format>  (481) 
BAO_0000357

>  <data_validity_description>  (481) 
None

>  <activity_id>  (481) 
12472605

>  <standard_type>  (481) 
IC50

>  <target_chembl_id>  (481) 
CHEMBL202

>  <data_validity_comment>  (481) 
None

>  <published_value>  (481) 
0.0089

>  <document_year>  (481) 
2008

>  <target_pref_name>  (481) 
Dihydrofolate reductase

>  <assay_chembl_id>  (481) 
CHEMBL3056824

>  <standard_relation>  (481) 
=

>  <assay_description>  (481) 
Inhibition of Homo sapiens (human) dihydrofolate reductase using dihydrofolate as substrate incubated for 5 min prior to substrate addition by spectrophotometric assay

>  <published_relation>  (481) 
=

>  <standard_value>  (481) 
8.9

>  <qudt_units>  (481) 
http://www.openphacts.org/units/Nanomolar

>  <target_tax_id>  (481) 
9606

>  <bao_label>  (481) 
single protein format

>  <published_units>  (481) 
uM

>  <pchembl_value>  (481) 
8.05

>  <published_type>  (481) 
IC50

>  <activity_comment>  (481) 
None

$$$$

     RDKit          

 23 24  0  0  0  0  0  0  0  0999 V2000
    0.0000    0.0000    0.0000 C   0  0  0  0  0  0  0  0  0  0  0  0
    0.0000    0.0000    0.0000 C   0  0  0  0  0  0  0  0  0  0  0  0
    0.0000    0.0000    0.0000 O   0  0  0  0  0  0  0  0  0  0  0  0
    0.0000    0.0000    0.0000 C   0  0  0  0  0  0  0  0  0  0  0  0
    0.0000    0.0000    0.0000 C   0  0  0  0  0  0  0  0  0  0  0  0
    0.0000    0.0000    0.0000 C   0  0  0  0  0  0  0  0  0  0  0  0
    0.0000    0.0000    0.0000 N   0  0  0  0  0  0  0  0  0  0  0  0
    0.0000    0.0000    0.0000 C   0  0  0  0  0  0  0  0  0  0  0  0
    0.0000    0.0000    0.0000 N   0  0  0  0  0  0  0  0  0  0  0  0
    0.0000    0.0000    0.0000 C   0  0  0  0  0  0  0  0  0  0  0  0
    0.0000    0.0000    0.0000 C   0  0  0  0  0  0  0  0  0  0  0  0
    0.0000    0.0000    0.0000 C   0  0  0  0  0  0  0  0  0  0  0  0
    0.0000    0.0000    0.0000 C   0  0  0  0  0  0  0  0  0  0  0  0
    0.0000    0.0000    0.0000 C   0  0  0  0  0  0  0  0  0  0  0  0
    0.0000    0.0000    0.0000 C   0  0  0  0  0  0  0  0  0  0  0  0
    0.0000    0.0000    0.0000 O   0  0  0  0  0  0  0  0  0  0  0  0
    0.0000    0.0000    0.0000 C   0  0  0  0  0  0  0  0  0  0  0  0
    0.0000    0.0000    0.0000 S   0  0  0  0  0  0  0  0  0  0  0  0
    0.0000    0.0000    0.0000 C   0  0  0  0  0  0  0  0  0  0  0  0
    0.0000    0.0000    0.0000 C   0  0  0  0  0  0  0  0  0  0  0  0
    0.0000    0.0000    0.0000 C   0  0  0  0  0  0  0  0  0  0  0  0
    0.0000    0.0000    0.0000 O   0  0  0  0  0  0  0  0  0  0  0  0
    0.0000    0.0000    0.0000 O   0  0  0  0  0  0  0  0  0  0  0  0
  1  2  1  0
  2  3  2  0
  2  4  1  0
  4  5  2  0
  5  6  1  0
  5  7  1  0
  7  8  2  0
  8  9  1  0
  9 10  1  0
 10 11  1  0
 11 12  2  0
 12 13  1  0
 13 14  2  0
 14 15  1  0
 15 16  1  0
 15 17  2  0
  8 18  1  0
 18 19  1  0
 19 20  1  0
 20 21  1  0
 21 22  2  0
 21 23  1  0
 10  4  1  0
 17 11  1  0
M  END
>  <pIC50>  (482) 
7.03

>  <ChEMBL_ID>  (482) 
CHEMBL2261433

>  <document_journal>  (482) 
Med Chem Res

>  <bao_endpoint>  (482) 
BAO_0000190

>  <potential_duplicate>  (482) 
False

>  <uo_units>  (482) 
UO_0000065

>  <canonical_smiles>  (482) 
CC(=O)C1=C(C)N=C(NC1c2cccc(O)c2)SCCC(=O)O

>  <parent_molecule_chembl_id>  (482) 
CHEMBL2261433

>  <assay_type>  (482) 
B

>  <src_id>  (482) 
1

>  <ligand_efficiency>  (482) 
{u'le': u'0.42', u'bei': u'21.01', u'sei': u'5.65', u'lle': u'5.14'}

>  <standard_flag>  (482) 
True

>  <molecule_chembl_id>  (482) 
CHEMBL2261433

>  <target_organism>  (482) 
Homo sapiens

>  <standard_units>  (482) 
nM

>  <record_id>  (482) 
1808060

>  <document_chembl_id>  (482) 
CHEMBL3045961

>  <bao_format>  (482) 
BAO_0000357

>  <data_validity_description>  (482) 
None

>  <activity_id>  (482) 
12472606

>  <standard_type>  (482) 
IC50

>  <target_chembl_id>  (482) 
CHEMBL202

>  <data_validity_comment>  (482) 
None

>  <published_value>  (482) 
0.094

>  <document_year>  (482) 
2008

>  <target_pref_name>  (482) 
Dihydrofolate reductase

>  <assay_chembl_id>  (482) 
CHEMBL3056824

>  <standard_relation>  (482) 
=

>  <assay_description>  (482) 
Inhibition of Homo sapiens (human) dihydrofolate reductase using dihydrofolate as substrate incubated for 5 min prior to substrate addition by spectrophotometric assay

>  <published_relation>  (482) 
=

>  <standard_value>  (482) 
94

>  <qudt_units>  (482) 
http://www.openphacts.org/units/Nanomolar

>  <target_tax_id>  (482) 
9606

>  <bao_label>  (482) 
single protein format

>  <published_units>  (482) 
uM

>  <pchembl_value>  (482) 
7.03

>  <published_type>  (482) 
IC50

>  <activity_comment>  (482) 
None

$$$$

     RDKit          

 22 23  0  0  0  0  0  0  0  0999 V2000
    0.0000    0.0000    0.0000 C   0  0  0  0  0  0  0  0  0  0  0  0
    0.0000    0.0000    0.0000 C   0  0  0  0  0  0  0  0  0  0  0  0
    0.0000    0.0000    0.0000 O   0  0  0  0  0  0  0  0  0  0  0  0
    0.0000    0.0000    0.0000 C   0  0  0  0  0  0  0  0  0  0  0  0
    0.0000    0.0000    0.0000 C   0  0  0  0  0  0  0  0  0  0  0  0
    0.0000    0.0000    0.0000 C   0  0  0  0  0  0  0  0  0  0  0  0
    0.0000    0.0000    0.0000 N   0  0  0  0  0  0  0  0  0  0  0  0
    0.0000    0.0000    0.0000 C   0  0  0  0  0  0  0  0  0  0  0  0
    0.0000    0.0000    0.0000 N   0  0  0  0  0  0  0  0  0  0  0  0
    0.0000    0.0000    0.0000 C   0  0  0  0  0  0  0  0  0  0  0  0
    0.0000    0.0000    0.0000 C   0  0  0  0  0  0  0  0  0  0  0  0
    0.0000    0.0000    0.0000 C   0  0  0  0  0  0  0  0  0  0  0  0
    0.0000    0.0000    0.0000 C   0  0  0  0  0  0  0  0  0  0  0  0
    0.0000    0.0000    0.0000 C   0  0  0  0  0  0  0  0  0  0  0  0
    0.0000    0.0000    0.0000 C   0  0  0  0  0  0  0  0  0  0  0  0
    0.0000    0.0000    0.0000 C   0  0  0  0  0  0  0  0  0  0  0  0
    0.0000    0.0000    0.0000 S   0  0  0  0  0  0  0  0  0  0  0  0
    0.0000    0.0000    0.0000 C   0  0  0  0  0  0  0  0  0  0  0  0
    0.0000    0.0000    0.0000 C   0  0  0  0  0  0  0  0  0  0  0  0
    0.0000    0.0000    0.0000 C   0  0  0  0  0  0  0  0  0  0  0  0
    0.0000    0.0000    0.0000 O   0  0  0  0  0  0  0  0  0  0  0  0
    0.0000    0.0000    0.0000 O   0  0  0  0  0  0  0  0  0  0  0  0
  1  2  1  0
  2  3  2  0
  2  4  1  0
  4  5  2  0
  5  6  1  0
  5  7  1  0
  7  8  2  0
  8  9  1  0
  9 10  1  0
 10 11  1  0
 11 12  2  0
 12 13  1  0
 13 14  2  0
 14 15  1  0
 15 16  2  0
  8 17  1  0
 17 18  1  0
 18 19  1  0
 19 20  1  0
 20 21  2  0
 20 22  1  0
 10  4  1  0
 16 11  1  0
M  END
>  <pIC50>  (483) 
8.89

>  <ChEMBL_ID>  (483) 
CHEMBL2261432

>  <document_journal>  (483) 
Med Chem Res

>  <bao_endpoint>  (483) 
BAO_0000190

>  <potential_duplicate>  (483) 
False

>  <uo_units>  (483) 
UO_0000065

>  <canonical_smiles>  (483) 
CC(=O)C1=C(C)N=C(NC1c2ccccc2)SCCC(=O)O

>  <parent_molecule_chembl_id>  (483) 
CHEMBL2261432

>  <assay_type>  (483) 
B

>  <src_id>  (483) 
1

>  <ligand_efficiency>  (483) 
{u'le': u'0.55', u'bei': u'27.91', u'sei': u'8.54', u'lle': u'6.75'}

>  <standard_flag>  (483) 
True

>  <molecule_chembl_id>  (483) 
CHEMBL2261432

>  <target_organism>  (483) 
Homo sapiens

>  <standard_units>  (483) 
nM

>  <record_id>  (483) 
1808059

>  <document_chembl_id>  (483) 
CHEMBL3045961

>  <bao_format>  (483) 
BAO_0000357

>  <data_validity_description>  (483) 
None

>  <activity_id>  (483) 
12472607

>  <standard_type>  (483) 
IC50

>  <target_chembl_id>  (483) 
CHEMBL202

>  <data_validity_comment>  (483) 
None

>  <published_value>  (483) 
0.0013

>  <document_year>  (483) 
2008

>  <target_pref_name>  (483) 
Dihydrofolate reductase

>  <assay_chembl_id>  (483) 
CHEMBL3056824

>  <standard_relation>  (483) 
=

>  <assay_description>  (483) 
Inhibition of Homo sapiens (human) dihydrofolate reductase using dihydrofolate as substrate incubated for 5 min prior to substrate addition by spectrophotometric assay

>  <published_relation>  (483) 
=

>  <standard_value>  (483) 
1.3

>  <qudt_units>  (483) 
http://www.openphacts.org/units/Nanomolar

>  <target_tax_id>  (483) 
9606

>  <bao_label>  (483) 
single protein format

>  <published_units>  (483) 
uM

>  <pchembl_value>  (483) 
8.89

>  <published_type>  (483) 
IC50

>  <activity_comment>  (483) 
None

$$$$

     RDKit          

 21 22  0  0  0  0  0  0  0  0999 V2000
    0.0000    0.0000    0.0000 C   0  0  0  0  0  0  0  0  0  0  0  0
    0.0000    0.0000    0.0000 C   0  0  0  0  0  0  0  0  0  0  0  0
    0.0000    0.0000    0.0000 O   0  0  0  0  0  0  0  0  0  0  0  0
    0.0000    0.0000    0.0000 C   0  0  0  0  0  0  0  0  0  0  0  0
    0.0000    0.0000    0.0000 O   0  0  0  0  0  0  0  0  0  0  0  0
    0.0000    0.0000    0.0000 C   0  0  0  0  0  0  0  0  0  0  0  0
    0.0000    0.0000    0.0000 C   0  0  0  0  0  0  0  0  0  0  0  0
    0.0000    0.0000    0.0000 C   0  0  0  0  0  0  0  0  0  0  0  0
    0.0000    0.0000    0.0000 N   0  0  0  0  0  0  0  0  0  0  0  0
    0.0000    0.0000    0.0000 C   0  0  0  0  0  0  0  0  0  0  0  0
    0.0000    0.0000    0.0000 S   0  0  0  0  0  0  0  0  0  0  0  0
    0.0000    0.0000    0.0000 N   0  0  0  0  0  0  0  0  0  0  0  0
    0.0000    0.0000    0.0000 C   0  0  0  0  0  0  0  0  0  0  0  0
    0.0000    0.0000    0.0000 C   0  0  0  0  0  0  0  0  0  0  0  0
    0.0000    0.0000    0.0000 C   0  0  0  0  0  0  0  0  0  0  0  0
    0.0000    0.0000    0.0000 C   0  0  0  0  0  0  0  0  0  0  0  0
    0.0000    0.0000    0.0000 C   0  0  0  0  0  0  0  0  0  0  0  0
    0.0000    0.0000    0.0000 C   0  0  0  0  0  0  0  0  0  0  0  0
    0.0000    0.0000    0.0000 C   0  0  0  0  0  0  0  0  0  0  0  0
    0.0000    0.0000    0.0000 C   0  0  0  0  0  0  0  0  0  0  0  0
    0.0000    0.0000    0.0000 C   0  0  0  0  0  0  0  0  0  0  0  0
  1  2  1  0
  2  3  1  0
  3  4  1  0
  4  5  2  0
  4  6  1  0
  6  7  2  0
  7  8  1  0
  7  9  1  0
  9 10  1  0
 10 11  2  0
 10 12  1  0
 12 13  1  0
 13 14  1  0
 14 15  2  0
 15 16  1  0
 16 17  2  0
 17 18  1  0
 18 19  2  0
 19 20  1  0
 20 21  2  0
 13  6  1  0
 21 16  1  0
M  END
>  <pIC50>  (484) 
5.54

>  <ChEMBL_ID>  (484) 
CHEMBL2261699

>  <document_journal>  (484) 
Med Chem Res

>  <bao_endpoint>  (484) 
BAO_0000190

>  <potential_duplicate>  (484) 
False

>  <uo_units>  (484) 
UO_0000065

>  <canonical_smiles>  (484) 
CCOC(=O)C1=C(C)NC(=S)NC1\C=C/c2ccccc2

>  <parent_molecule_chembl_id>  (484) 
CHEMBL2261699

>  <assay_type>  (484) 
B

>  <src_id>  (484) 
1

>  <ligand_efficiency>  (484) 
{u'le': u'0.36', u'bei': u'18.31', u'sei': u'6.72', u'lle': u'2.37'}

>  <standard_flag>  (484) 
True

>  <molecule_chembl_id>  (484) 
CHEMBL2261699

>  <target_organism>  (484) 
Homo sapiens

>  <standard_units>  (484) 
nM

>  <record_id>  (484) 
1808434

>  <document_chembl_id>  (484) 
CHEMBL3045961

>  <bao_format>  (484) 
BAO_0000357

>  <data_validity_description>  (484) 
None

>  <activity_id>  (484) 
12472608

>  <standard_type>  (484) 
IC50

>  <target_chembl_id>  (484) 
CHEMBL202

>  <data_validity_comment>  (484) 
None

>  <published_value>  (484) 
2.9

>  <document_year>  (484) 
2008

>  <target_pref_name>  (484) 
Dihydrofolate reductase

>  <assay_chembl_id>  (484) 
CHEMBL3056824

>  <standard_relation>  (484) 
=

>  <assay_description>  (484) 
Inhibition of Homo sapiens (human) dihydrofolate reductase using dihydrofolate as substrate incubated for 5 min prior to substrate addition by spectrophotometric assay

>  <published_relation>  (484) 
=

>  <standard_value>  (484) 
2900

>  <qudt_units>  (484) 
http://www.openphacts.org/units/Nanomolar

>  <target_tax_id>  (484) 
9606

>  <bao_label>  (484) 
single protein format

>  <published_units>  (484) 
uM

>  <pchembl_value>  (484) 
5.54

>  <published_type>  (484) 
IC50

>  <activity_comment>  (484) 
None

$$$$

     RDKit          

 21 22  0  0  0  0  0  0  0  0999 V2000
    0.0000    0.0000    0.0000 C   0  0  0  0  0  0  0  0  0  0  0  0
    0.0000    0.0000    0.0000 C   0  0  0  0  0  0  0  0  0  0  0  0
    0.0000    0.0000    0.0000 O   0  0  0  0  0  0  0  0  0  0  0  0
    0.0000    0.0000    0.0000 C   0  0  0  0  0  0  0  0  0  0  0  0
    0.0000    0.0000    0.0000 O   0  0  0  0  0  0  0  0  0  0  0  0
    0.0000    0.0000    0.0000 C   0  0  0  0  0  0  0  0  0  0  0  0
    0.0000    0.0000    0.0000 C   0  0  0  0  0  0  0  0  0  0  0  0
    0.0000    0.0000    0.0000 C   0  0  0  0  0  0  0  0  0  0  0  0
    0.0000    0.0000    0.0000 N   0  0  0  0  0  0  0  0  0  0  0  0
    0.0000    0.0000    0.0000 C   0  0  0  0  0  0  0  0  0  0  0  0
    0.0000    0.0000    0.0000 S   0  0  0  0  0  0  0  0  0  0  0  0
    0.0000    0.0000    0.0000 N   0  0  0  0  0  0  0  0  0  0  0  0
    0.0000    0.0000    0.0000 C   0  0  0  0  0  0  0  0  0  0  0  0
    0.0000    0.0000    0.0000 C   0  0  0  0  0  0  0  0  0  0  0  0
    0.0000    0.0000    0.0000 C   0  0  0  0  0  0  0  0  0  0  0  0
    0.0000    0.0000    0.0000 C   0  0  0  0  0  0  0  0  0  0  0  0
    0.0000    0.0000    0.0000 C   0  0  0  0  0  0  0  0  0  0  0  0
    0.0000    0.0000    0.0000 C   0  0  0  0  0  0  0  0  0  0  0  0
    0.0000    0.0000    0.0000 C   0  0  0  0  0  0  0  0  0  0  0  0
    0.0000    0.0000    0.0000 O   0  0  0  0  0  0  0  0  0  0  0  0
    0.0000    0.0000    0.0000 C   0  0  0  0  0  0  0  0  0  0  0  0
  1  2  1  0
  2  3  1  0
  3  4  1  0
  4  5  2  0
  4  6  1  0
  6  7  2  0
  7  8  1  0
  7  9  1  0
  9 10  1  0
 10 11  2  0
 10 12  1  0
 12 13  1  0
 13 14  1  0
 14 15  2  0
 15 16  1  0
 16 17  2  0
 17 18  1  0
 18 19  2  0
 19 20  1  0
 20 21  1  0
 13  6  1  0
 19 14  1  0
M  END
>  <pIC50>  (485) 
5.72

>  <ChEMBL_ID>  (485) 
CHEMBL2261698

>  <document_journal>  (485) 
Med Chem Res

>  <bao_endpoint>  (485) 
BAO_0000190

>  <potential_duplicate>  (485) 
False

>  <uo_units>  (485) 
UO_0000065

>  <canonical_smiles>  (485) 
CCOC(=O)C1=C(C)NC(=S)NC1c2ccccc2OC

>  <parent_molecule_chembl_id>  (485) 
CHEMBL2261698

>  <assay_type>  (485) 
B

>  <src_id>  (485) 
1

>  <ligand_efficiency>  (485) 
{u'le': u'0.37', u'bei': u'18.67', u'sei': u'6.24', u'lle': u'3.03'}

>  <standard_flag>  (485) 
True

>  <molecule_chembl_id>  (485) 
CHEMBL2261698

>  <target_organism>  (485) 
Homo sapiens

>  <standard_units>  (485) 
nM

>  <record_id>  (485) 
1808433

>  <document_chembl_id>  (485) 
CHEMBL3045961

>  <bao_format>  (485) 
BAO_0000357

>  <data_validity_description>  (485) 
None

>  <activity_id>  (485) 
12472609

>  <standard_type>  (485) 
IC50

>  <target_chembl_id>  (485) 
CHEMBL202

>  <data_validity_comment>  (485) 
None

>  <published_value>  (485) 
1.9

>  <document_year>  (485) 
2008

>  <target_pref_name>  (485) 
Dihydrofolate reductase

>  <assay_chembl_id>  (485) 
CHEMBL3056824

>  <standard_relation>  (485) 
=

>  <assay_description>  (485) 
Inhibition of Homo sapiens (human) dihydrofolate reductase using dihydrofolate as substrate incubated for 5 min prior to substrate addition by spectrophotometric assay

>  <published_relation>  (485) 
=

>  <standard_value>  (485) 
1900

>  <qudt_units>  (485) 
http://www.openphacts.org/units/Nanomolar

>  <target_tax_id>  (485) 
9606

>  <bao_label>  (485) 
single protein format

>  <published_units>  (485) 
uM

>  <pchembl_value>  (485) 
5.72

>  <published_type>  (485) 
IC50

>  <activity_comment>  (485) 
None

$$$$

     RDKit          

 19 20  0  0  0  0  0  0  0  0999 V2000
    0.0000    0.0000    0.0000 C   0  0  0  0  0  0  0  0  0  0  0  0
    0.0000    0.0000    0.0000 C   0  0  0  0  0  0  0  0  0  0  0  0
    0.0000    0.0000    0.0000 O   0  0  0  0  0  0  0  0  0  0  0  0
    0.0000    0.0000    0.0000 C   0  0  0  0  0  0  0  0  0  0  0  0
    0.0000    0.0000    0.0000 O   0  0  0  0  0  0  0  0  0  0  0  0
    0.0000    0.0000    0.0000 C   0  0  0  0  0  0  0  0  0  0  0  0
    0.0000    0.0000    0.0000 C   0  0  0  0  0  0  0  0  0  0  0  0
    0.0000    0.0000    0.0000 C   0  0  0  0  0  0  0  0  0  0  0  0
    0.0000    0.0000    0.0000 N   0  0  0  0  0  0  0  0  0  0  0  0
    0.0000    0.0000    0.0000 C   0  0  0  0  0  0  0  0  0  0  0  0
    0.0000    0.0000    0.0000 S   0  0  0  0  0  0  0  0  0  0  0  0
    0.0000    0.0000    0.0000 N   0  0  0  0  0  0  0  0  0  0  0  0
    0.0000    0.0000    0.0000 C   0  0  0  0  0  0  0  0  0  0  0  0
    0.0000    0.0000    0.0000 C   0  0  0  0  0  0  0  0  0  0  0  0
    0.0000    0.0000    0.0000 C   0  0  0  0  0  0  0  0  0  0  0  0
    0.0000    0.0000    0.0000 C   0  0  0  0  0  0  0  0  0  0  0  0
    0.0000    0.0000    0.0000 C   0  0  0  0  0  0  0  0  0  0  0  0
    0.0000    0.0000    0.0000 C   0  0  0  0  0  0  0  0  0  0  0  0
    0.0000    0.0000    0.0000 C   0  0  0  0  0  0  0  0  0  0  0  0
  1  2  1  0
  2  3  1  0
  3  4  1  0
  4  5  2  0
  4  6  1  0
  6  7  2  0
  7  8  1  0
  7  9  1  0
  9 10  1  0
 10 11  2  0
 10 12  1  0
 12 13  1  0
 13 14  1  0
 14 15  2  0
 15 16  1  0
 16 17  2  0
 17 18  1  0
 18 19  2  0
 13  6  1  0
 19 14  1  0
M  END
>  <pIC50>  (486) 
6.24

>  <ChEMBL_ID>  (486) 
CHEMBL455456

>  <document_journal>  (486) 
Med Chem Res

>  <bao_endpoint>  (486) 
BAO_0000190

>  <potential_duplicate>  (486) 
False

>  <uo_units>  (486) 
UO_0000065

>  <canonical_smiles>  (486) 
CCOC(=O)C1=C(C)NC(=S)NC1c2ccccc2

>  <parent_molecule_chembl_id>  (486) 
CHEMBL455456

>  <assay_type>  (486) 
B

>  <src_id>  (486) 
1

>  <ligand_efficiency>  (486) 
{u'le': u'0.45', u'bei': u'22.57', u'sei': u'7.56', u'lle': u'3.54'}

>  <standard_flag>  (486) 
True

>  <molecule_chembl_id>  (486) 
CHEMBL455456

>  <target_organism>  (486) 
Homo sapiens

>  <standard_units>  (486) 
nM

>  <record_id>  (486) 
1808432

>  <document_chembl_id>  (486) 
CHEMBL3045961

>  <bao_format>  (486) 
BAO_0000357

>  <data_validity_description>  (486) 
None

>  <activity_id>  (486) 
12472610

>  <standard_type>  (486) 
IC50

>  <target_chembl_id>  (486) 
CHEMBL202

>  <data_validity_comment>  (486) 
None

>  <published_value>  (486) 
0.58

>  <document_year>  (486) 
2008

>  <target_pref_name>  (486) 
Dihydrofolate reductase

>  <assay_chembl_id>  (486) 
CHEMBL3056824

>  <standard_relation>  (486) 
=

>  <assay_description>  (486) 
Inhibition of Homo sapiens (human) dihydrofolate reductase using dihydrofolate as substrate incubated for 5 min prior to substrate addition by spectrophotometric assay

>  <published_relation>  (486) 
=

>  <standard_value>  (486) 
580

>  <qudt_units>  (486) 
http://www.openphacts.org/units/Nanomolar

>  <target_tax_id>  (486) 
9606

>  <bao_label>  (486) 
single protein format

>  <published_units>  (486) 
uM

>  <pchembl_value>  (486) 
6.24

>  <published_type>  (486) 
IC50

>  <activity_comment>  (486) 
None

$$$$

     RDKit          

 18 19  0  0  0  0  0  0  0  0999 V2000
    0.0000    0.0000    0.0000 C   0  0  0  0  0  0  0  0  0  0  0  0
    0.0000    0.0000    0.0000 C   0  0  0  0  0  0  0  0  0  0  0  0
    0.0000    0.0000    0.0000 O   0  0  0  0  0  0  0  0  0  0  0  0
    0.0000    0.0000    0.0000 C   0  0  0  0  0  0  0  0  0  0  0  0
    0.0000    0.0000    0.0000 C   0  0  0  0  0  0  0  0  0  0  0  0
    0.0000    0.0000    0.0000 C   0  0  0  0  0  0  0  0  0  0  0  0
    0.0000    0.0000    0.0000 N   0  0  0  0  0  0  0  0  0  0  0  0
    0.0000    0.0000    0.0000 C   0  0  0  0  0  0  0  0  0  0  0  0
    0.0000    0.0000    0.0000 S   0  0  0  0  0  0  0  0  0  0  0  0
    0.0000    0.0000    0.0000 N   0  0  0  0  0  0  0  0  0  0  0  0
    0.0000    0.0000    0.0000 C   0  0  0  0  0  0  0  0  0  0  0  0
    0.0000    0.0000    0.0000 C   0  0  0  0  0  0  0  0  0  0  0  0
    0.0000    0.0000    0.0000 C   0  0  0  0  0  0  0  0  0  0  0  0
    0.0000    0.0000    0.0000 C   0  0  0  0  0  0  0  0  0  0  0  0
    0.0000    0.0000    0.0000 C   0  0  0  0  0  0  0  0  0  0  0  0
    0.0000    0.0000    0.0000 C   0  0  0  0  0  0  0  0  0  0  0  0
    0.0000    0.0000    0.0000 O   0  0  0  0  0  0  0  0  0  0  0  0
    0.0000    0.0000    0.0000 C   0  0  0  0  0  0  0  0  0  0  0  0
  1  2  1  0
  2  3  2  0
  2  4  1  0
  4  5  2  0
  5  6  1  0
  5  7  1  0
  7  8  1  0
  8  9  2  0
  8 10  1  0
 10 11  1  0
 11 12  1  0
 12 13  2  0
 13 14  1  0
 14 15  2  0
 15 16  1  0
 16 17  1  0
 16 18  2  0
 11  4  1  0
 18 12  1  0
M  END
>  <pIC50>  (487) 
5.03

>  <ChEMBL_ID>  (487) 
CHEMBL2261697

>  <document_journal>  (487) 
Med Chem Res

>  <bao_endpoint>  (487) 
BAO_0000190

>  <potential_duplicate>  (487) 
False

>  <uo_units>  (487) 
UO_0000065

>  <canonical_smiles>  (487) 
CC(=O)C1=C(C)NC(=S)NC1c2cccc(O)c2

>  <parent_molecule_chembl_id>  (487) 
CHEMBL2261697

>  <assay_type>  (487) 
B

>  <src_id>  (487) 
1

>  <ligand_efficiency>  (487) 
{u'le': u'0.38', u'bei': u'19.16', u'sei': u'5.38', u'lle': u'3.04'}

>  <standard_flag>  (487) 
True

>  <molecule_chembl_id>  (487) 
CHEMBL2261697

>  <target_organism>  (487) 
Homo sapiens

>  <standard_units>  (487) 
nM

>  <record_id>  (487) 
1808431

>  <document_chembl_id>  (487) 
CHEMBL3045961

>  <bao_format>  (487) 
BAO_0000357

>  <data_validity_description>  (487) 
None

>  <activity_id>  (487) 
12472611

>  <standard_type>  (487) 
IC50

>  <target_chembl_id>  (487) 
CHEMBL202

>  <data_validity_comment>  (487) 
None

>  <published_value>  (487) 
9.4

>  <document_year>  (487) 
2008

>  <target_pref_name>  (487) 
Dihydrofolate reductase

>  <assay_chembl_id>  (487) 
CHEMBL3056824

>  <standard_relation>  (487) 
=

>  <assay_description>  (487) 
Inhibition of Homo sapiens (human) dihydrofolate reductase using dihydrofolate as substrate incubated for 5 min prior to substrate addition by spectrophotometric assay

>  <published_relation>  (487) 
=

>  <standard_value>  (487) 
9400

>  <qudt_units>  (487) 
http://www.openphacts.org/units/Nanomolar

>  <target_tax_id>  (487) 
9606

>  <bao_label>  (487) 
single protein format

>  <published_units>  (487) 
uM

>  <pchembl_value>  (487) 
5.03

>  <published_type>  (487) 
IC50

>  <activity_comment>  (487) 
None

$$$$

     RDKit          

 26 27  0  0  0  0  0  0  0  0999 V2000
    0.0000    0.0000    0.0000 C   0  0  0  0  0  0  0  0  0  0  0  0
    0.0000    0.0000    0.0000 O   0  0  0  0  0  0  0  0  0  0  0  0
    0.0000    0.0000    0.0000 C   0  0  0  0  0  0  0  0  0  0  0  0
    0.0000    0.0000    0.0000 C   0  0  0  0  0  0  0  0  0  0  0  0
    0.0000    0.0000    0.0000 C   0  0  0  0  0  0  0  0  0  0  0  0
    0.0000    0.0000    0.0000 C   0  0  0  0  0  0  0  0  0  0  0  0
    0.0000    0.0000    0.0000 C   0  0  0  0  0  0  0  0  0  0  0  0
    0.0000    0.0000    0.0000 O   0  0  0  0  0  0  0  0  0  0  0  0
    0.0000    0.0000    0.0000 C   0  0  0  0  0  0  0  0  0  0  0  0
    0.0000    0.0000    0.0000 C   0  0  0  0  0  0  0  0  0  0  0  0
    0.0000    0.0000    0.0000 O   0  0  0  0  0  0  0  0  0  0  0  0
    0.0000    0.0000    0.0000 C   0  0  0  0  0  0  0  0  0  0  0  0
    0.0000    0.0000    0.0000 C   0  0  0  0  0  0  0  0  0  0  0  0
    0.0000    0.0000    0.0000 C   0  0  0  0  0  0  0  0  0  0  0  0
    0.0000    0.0000    0.0000 C   0  0  0  0  0  0  0  0  0  0  0  0
    0.0000    0.0000    0.0000 C   0  0  0  0  0  0  0  0  0  0  0  0
    0.0000    0.0000    0.0000 C   0  0  0  0  0  0  0  0  0  0  0  0
    0.0000    0.0000    0.0000 C   0  0  0  0  0  0  0  0  0  0  0  0
    0.0000    0.0000    0.0000 C   0  0  0  0  0  0  0  0  0  0  0  0
    0.0000    0.0000    0.0000 C   0  0  0  0  0  0  0  0  0  0  0  0
    0.0000    0.0000    0.0000 N   0  0  0  0  0  0  0  0  0  0  0  0
    0.0000    0.0000    0.0000 C   0  0  0  0  0  0  0  0  0  0  0  0
    0.0000    0.0000    0.0000 N   0  0  0  0  0  0  0  0  0  0  0  0
    0.0000    0.0000    0.0000 N   0  0  0  0  0  0  0  0  0  0  0  0
    0.0000    0.0000    0.0000 C   0  0  0  0  0  0  0  0  0  0  0  0
    0.0000    0.0000    0.0000 N   0  0  0  0  0  0  0  0  0  0  0  0
  1  2  1  0
  2  3  1  0
  3  4  2  0
  4  5  1  0
  5  6  2  0
  6  7  1  0
  7  8  1  0
  8  9  1  0
  7 10  2  0
 10 11  1  0
 11 12  1  0
  5 13  1  0
 13 14  1  0
 13 15  1  0
 13 16  1  0
 16 17  3  0
 17 18  1  0
 18 19  2  0
 19 20  1  0
 19 21  1  0
 21 22  2  0
 22 23  1  0
 22 24  1  0
 24 25  2  0
 25 26  1  0
 10  3  1  0
 25 18  1  0
M  END
>  <pIC50>  (488) 
6.54

>  <ChEMBL_ID>  (488) 
CHEMBL1230365

>  <document_journal>  (488) 
Bioorg. Med. Chem. Lett.

>  <bao_endpoint>  (488) 
BAO_0000190

>  <potential_duplicate>  (488) 
False

>  <uo_units>  (488) 
UO_0000065

>  <canonical_smiles>  (488) 
COc1cc(cc(OC)c1OC)C(C)(C)C#Cc2c(C)nc(N)nc2N

>  <parent_molecule_chembl_id>  (488) 
CHEMBL1230365

>  <assay_type>  (488) 
B

>  <src_id>  (488) 
1

>  <ligand_efficiency>  (488) 
{u'le': u'0.34', u'bei': u'18.34', u'sei': u'6.2', u'lle': u'3.67'}

>  <standard_flag>  (488) 
True

>  <molecule_chembl_id>  (488) 
CHEMBL1230365

>  <target_organism>  (488) 
Homo sapiens

>  <standard_units>  (488) 
nM

>  <record_id>  (488) 
1870083

>  <document_chembl_id>  (488) 
CHEMBL2331301

>  <bao_format>  (488) 
BAO_0000357

>  <data_validity_description>  (488) 
None

>  <activity_id>  (488) 
12698761

>  <standard_type>  (488) 
IC50

>  <target_chembl_id>  (488) 
CHEMBL202

>  <data_validity_comment>  (488) 
None

>  <published_value>  (488) 
290

>  <document_year>  (488) 
2013

>  <target_pref_name>  (488) 
Dihydrofolate reductase

>  <assay_chembl_id>  (488) 
CHEMBL2340616

>  <standard_relation>  (488) 
=

>  <assay_description>  (488) 
Inhibition of human DHFR

>  <published_relation>  (488) 
=

>  <standard_value>  (488) 
290

>  <qudt_units>  (488) 
http://www.openphacts.org/units/Nanomolar

>  <target_tax_id>  (488) 
9606

>  <bao_label>  (488) 
single protein format

>  <published_units>  (488) 
nM

>  <pchembl_value>  (488) 
6.54

>  <published_type>  (488) 
IC50

>  <activity_comment>  (488) 
None

$$$$

     RDKit          

 32 35  0  0  0  0  0  0  0  0999 V2000
    0.0000    0.0000    0.0000 C   0  0  0  0  0  0  0  0  0  0  0  0
    0.0000    0.0000    0.0000 C   0  0  0  0  0  0  0  0  0  0  0  0
    0.0000    0.0000    0.0000 C   0  0  0  0  0  0  0  0  0  0  0  0
    0.0000    0.0000    0.0000 N   0  0  0  0  0  0  0  0  0  0  0  0
    0.0000    0.0000    0.0000 C   0  0  0  0  0  0  0  0  0  0  0  0
    0.0000    0.0000    0.0000 N   0  0  0  0  0  0  0  0  0  0  0  0
    0.0000    0.0000    0.0000 N   0  0  0  0  0  0  0  0  0  0  0  0
    0.0000    0.0000    0.0000 C   0  0  0  0  0  0  0  0  0  0  0  0
    0.0000    0.0000    0.0000 N   0  0  0  0  0  0  0  0  0  0  0  0
    0.0000    0.0000    0.0000 C   0  0  0  0  0  0  0  0  0  0  0  0
    0.0000    0.0000    0.0000 C   0  0  0  0  0  0  0  0  0  0  0  0
    0.0000    0.0000    0.0000 C   0  0  0  0  0  0  0  0  0  0  0  0
    0.0000    0.0000    0.0000 C   0  0  0  0  0  0  0  0  0  0  0  0
    0.0000    0.0000    0.0000 C   0  0  0  0  0  0  0  0  0  0  0  0
    0.0000    0.0000    0.0000 C   0  0  0  0  0  0  0  0  0  0  0  0
    0.0000    0.0000    0.0000 C   0  0  0  0  0  0  0  0  0  0  0  0
    0.0000    0.0000    0.0000 C   0  0  0  0  0  0  0  0  0  0  0  0
    0.0000    0.0000    0.0000 O   0  0  0  0  0  0  0  0  0  0  0  0
    0.0000    0.0000    0.0000 C   0  0  0  0  0  0  0  0  0  0  0  0
    0.0000    0.0000    0.0000 C   0  0  0  0  0  0  0  0  0  0  0  0
    0.0000    0.0000    0.0000 C   0  0  0  0  0  0  0  0  0  0  0  0
    0.0000    0.0000    0.0000 C   0  0  0  0  0  0  0  0  0  0  0  0
    0.0000    0.0000    0.0000 C   0  0  0  0  0  0  0  0  0  0  0  0
    0.0000    0.0000    0.0000 C   0  0  0  0  0  0  0  0  0  0  0  0
    0.0000    0.0000    0.0000 C   0  0  0  0  0  0  0  0  0  0  0  0
    0.0000    0.0000    0.0000 C   0  0  0  0  0  0  0  0  0  0  0  0
    0.0000    0.0000    0.0000 O   0  0  0  0  0  0  0  0  0  0  0  0
    0.0000    0.0000    0.0000 C   0  0  0  0  0  0  0  0  0  0  0  0
    0.0000    0.0000    0.0000 C   0  0  0  0  0  0  0  0  0  0  0  0
    0.0000    0.0000    0.0000 O   0  0  0  0  0  0  0  0  0  0  0  0
    0.0000    0.0000    0.0000 C   0  0  0  0  0  0  0  0  0  0  0  0
    0.0000    0.0000    0.0000 C   0  0  0  0  0  0  0  0  0  0  0  0
  1  2  1  0
  2  3  1  0
  3  4  2  0
  4  5  1  0
  5  6  1  0
  5  7  2  0
  7  8  1  0
  8  9  1  0
  8 10  2  0
 10 11  1  0
 11 12  3  0
 12 13  1  0
 13 14  1  0
 13 15  1  0
 15 16  2  0
 16 17  1  0
 17 18  1  0
 18 19  1  0
 17 20  2  0
 20 21  1  0
 21 22  2  0
 21 23  1  0
 23 24  2  0
 24 25  1  0
 25 26  2  0
 26 27  1  0
 27 28  1  0
 28 29  1  0
 29 30  1  0
 30 31  1  0
 31 32  2  0
 10  3  1  0
 22 15  1  0
 32 23  1  0
 31 26  1  0
M  END
>  <pIC50>  (489) 
6.59

>  <ChEMBL_ID>  (489) 
CHEMBL2335423

>  <document_journal>  (489) 
Bioorg. Med. Chem. Lett.

>  <bao_endpoint>  (489) 
BAO_0000190

>  <potential_duplicate>  (489) 
False

>  <uo_units>  (489) 
UO_0000065

>  <canonical_smiles>  (489) 
CCc1nc(N)nc(N)c1C#CC(C)c2cc(OC)cc(c2)c3ccc4OCCOc4c3

>  <parent_molecule_chembl_id>  (489) 
CHEMBL2335423

>  <assay_type>  (489) 
B

>  <src_id>  (489) 
1

>  <ligand_efficiency>  (489) 
{u'le': u'0.28', u'bei': u'15.3', u'sei': u'6.24', u'lle': u'1.92'}

>  <standard_flag>  (489) 
True

>  <molecule_chembl_id>  (489) 
CHEMBL2335423

>  <target_organism>  (489) 
Homo sapiens

>  <standard_units>  (489) 
nM

>  <record_id>  (489) 
1870081

>  <document_chembl_id>  (489) 
CHEMBL2331301

>  <bao_format>  (489) 
BAO_0000357

>  <data_validity_description>  (489) 
None

>  <activity_id>  (489) 
12698763

>  <standard_type>  (489) 
IC50

>  <target_chembl_id>  (489) 
CHEMBL202

>  <data_validity_comment>  (489) 
None

>  <published_value>  (489) 
260

>  <document_year>  (489) 
2013

>  <target_pref_name>  (489) 
Dihydrofolate reductase

>  <assay_chembl_id>  (489) 
CHEMBL2340616

>  <standard_relation>  (489) 
=

>  <assay_description>  (489) 
Inhibition of human DHFR

>  <published_relation>  (489) 
=

>  <standard_value>  (489) 
260

>  <qudt_units>  (489) 
http://www.openphacts.org/units/Nanomolar

>  <target_tax_id>  (489) 
9606

>  <bao_label>  (489) 
single protein format

>  <published_units>  (489) 
nM

>  <pchembl_value>  (489) 
6.59

>  <published_type>  (489) 
IC50

>  <activity_comment>  (489) 
None

$$$$

     RDKit          

 31 34  0  0  0  0  0  0  0  0999 V2000
    0.0000    0.0000    0.0000 C   0  0  0  0  0  0  0  0  0  0  0  0
    0.0000    0.0000    0.0000 C   0  0  0  0  0  0  0  0  0  0  0  0
    0.0000    0.0000    0.0000 C   0  0  0  0  0  0  0  0  0  0  0  0
    0.0000    0.0000    0.0000 N   0  0  0  0  0  0  0  0  0  0  0  0
    0.0000    0.0000    0.0000 C   0  0  0  0  0  0  0  0  0  0  0  0
    0.0000    0.0000    0.0000 N   0  0  0  0  0  0  0  0  0  0  0  0
    0.0000    0.0000    0.0000 N   0  0  0  0  0  0  0  0  0  0  0  0
    0.0000    0.0000    0.0000 C   0  0  0  0  0  0  0  0  0  0  0  0
    0.0000    0.0000    0.0000 N   0  0  0  0  0  0  0  0  0  0  0  0
    0.0000    0.0000    0.0000 C   0  0  0  0  0  0  0  0  0  0  0  0
    0.0000    0.0000    0.0000 C   0  0  0  0  0  0  0  0  0  0  0  0
    0.0000    0.0000    0.0000 C   0  0  0  0  0  0  0  0  0  0  0  0
    0.0000    0.0000    0.0000 C   0  0  0  0  0  0  0  0  0  0  0  0
    0.0000    0.0000    0.0000 C   0  0  0  0  0  0  0  0  0  0  0  0
    0.0000    0.0000    0.0000 C   0  0  0  0  0  0  0  0  0  0  0  0
    0.0000    0.0000    0.0000 C   0  0  0  0  0  0  0  0  0  0  0  0
    0.0000    0.0000    0.0000 O   0  0  0  0  0  0  0  0  0  0  0  0
    0.0000    0.0000    0.0000 C   0  0  0  0  0  0  0  0  0  0  0  0
    0.0000    0.0000    0.0000 C   0  0  0  0  0  0  0  0  0  0  0  0
    0.0000    0.0000    0.0000 C   0  0  0  0  0  0  0  0  0  0  0  0
    0.0000    0.0000    0.0000 C   0  0  0  0  0  0  0  0  0  0  0  0
    0.0000    0.0000    0.0000 C   0  0  0  0  0  0  0  0  0  0  0  0
    0.0000    0.0000    0.0000 C   0  0  0  0  0  0  0  0  0  0  0  0
    0.0000    0.0000    0.0000 C   0  0  0  0  0  0  0  0  0  0  0  0
    0.0000    0.0000    0.0000 C   0  0  0  0  0  0  0  0  0  0  0  0
    0.0000    0.0000    0.0000 O   0  0  0  0  0  0  0  0  0  0  0  0
    0.0000    0.0000    0.0000 C   0  0  0  0  0  0  0  0  0  0  0  0
    0.0000    0.0000    0.0000 C   0  0  0  0  0  0  0  0  0  0  0  0
    0.0000    0.0000    0.0000 O   0  0  0  0  0  0  0  0  0  0  0  0
    0.0000    0.0000    0.0000 C   0  0  0  0  0  0  0  0  0  0  0  0
    0.0000    0.0000    0.0000 C   0  0  0  0  0  0  0  0  0  0  0  0
  1  2  1  0
  2  3  1  0
  3  4  2  0
  4  5  1  0
  5  6  1  0
  5  7  2  0
  7  8  1  0
  8  9  1  0
  8 10  2  0
 10 11  1  0
 11 12  3  0
 12 13  1  0
 13 14  1  0
 14 15  2  0
 15 16  1  0
 16 17  1  0
 17 18  1  0
 16 19  2  0
 19 20  1  0
 20 21  2  0
 20 22  1  0
 22 23  2  0
 23 24  1  0
 24 25  2  0
 25 26  1  0
 26 27  1  0
 27 28  1  0
 28 29  1  0
 29 30  1  0
 30 31  2  0
 10  3  1  0
 21 14  1  0
 31 22  1  0
 30 25  1  0
M  END
>  <pIC50>  (490) 
6.85

>  <ChEMBL_ID>  (490) 
CHEMBL2335422

>  <document_journal>  (490) 
Bioorg. Med. Chem. Lett.

>  <bao_endpoint>  (490) 
BAO_0000190

>  <potential_duplicate>  (490) 
False

>  <uo_units>  (490) 
UO_0000065

>  <canonical_smiles>  (490) 
CCc1nc(N)nc(N)c1C#CCc2cc(OC)cc(c2)c3ccc4OCCOc4c3

>  <parent_molecule_chembl_id>  (490) 
CHEMBL2335422

>  <assay_type>  (490) 
B

>  <src_id>  (490) 
1

>  <ligand_efficiency>  (490) 
{u'le': u'0.3', u'bei': u'16.46', u'sei': u'6.5', u'lle': u'2.43'}

>  <standard_flag>  (490) 
True

>  <molecule_chembl_id>  (490) 
CHEMBL2335422

>  <target_organism>  (490) 
Homo sapiens

>  <standard_units>  (490) 
nM

>  <record_id>  (490) 
1870080

>  <document_chembl_id>  (490) 
CHEMBL2331301

>  <bao_format>  (490) 
BAO_0000357

>  <data_validity_description>  (490) 
None

>  <activity_id>  (490) 
12698764

>  <standard_type>  (490) 
IC50

>  <target_chembl_id>  (490) 
CHEMBL202

>  <data_validity_comment>  (490) 
None

>  <published_value>  (490) 
140

>  <document_year>  (490) 
2013

>  <target_pref_name>  (490) 
Dihydrofolate reductase

>  <assay_chembl_id>  (490) 
CHEMBL2340616

>  <standard_relation>  (490) 
=

>  <assay_description>  (490) 
Inhibition of human DHFR

>  <published_relation>  (490) 
=

>  <standard_value>  (490) 
140

>  <qudt_units>  (490) 
http://www.openphacts.org/units/Nanomolar

>  <target_tax_id>  (490) 
9606

>  <bao_label>  (490) 
single protein format

>  <published_units>  (490) 
nM

>  <pchembl_value>  (490) 
6.85

>  <published_type>  (490) 
IC50

>  <activity_comment>  (490) 
None

$$$$

     RDKit          

 32 35  0  0  0  0  0  0  0  0999 V2000
    0.0000    0.0000    0.0000 C   0  0  0  0  0  0  0  0  0  0  0  0
    0.0000    0.0000    0.0000 C   0  0  0  0  0  0  0  0  0  0  0  0
    0.0000    0.0000    0.0000 C   0  0  0  0  0  0  0  0  0  0  0  0
    0.0000    0.0000    0.0000 N   0  0  0  0  0  0  0  0  0  0  0  0
    0.0000    0.0000    0.0000 C   0  0  0  0  0  0  0  0  0  0  0  0
    0.0000    0.0000    0.0000 N   0  0  0  0  0  0  0  0  0  0  0  0
    0.0000    0.0000    0.0000 N   0  0  0  0  0  0  0  0  0  0  0  0
    0.0000    0.0000    0.0000 C   0  0  0  0  0  0  0  0  0  0  0  0
    0.0000    0.0000    0.0000 N   0  0  0  0  0  0  0  0  0  0  0  0
    0.0000    0.0000    0.0000 C   0  0  0  0  0  0  0  0  0  0  0  0
    0.0000    0.0000    0.0000 C   0  0  0  0  0  0  0  0  0  0  0  0
    0.0000    0.0000    0.0000 C   0  0  0  0  0  0  0  0  0  0  0  0
    0.0000    0.0000    0.0000 C   0  0  0  0  0  0  0  0  0  0  0  0
    0.0000    0.0000    0.0000 C   0  0  0  0  0  0  0  0  0  0  0  0
    0.0000    0.0000    0.0000 C   0  0  0  0  0  0  0  0  0  0  0  0
    0.0000    0.0000    0.0000 C   0  0  0  0  0  0  0  0  0  0  0  0
    0.0000    0.0000    0.0000 C   0  0  0  0  0  0  0  0  0  0  0  0
    0.0000    0.0000    0.0000 O   0  0  0  0  0  0  0  0  0  0  0  0
    0.0000    0.0000    0.0000 C   0  0  0  0  0  0  0  0  0  0  0  0
    0.0000    0.0000    0.0000 C   0  0  0  0  0  0  0  0  0  0  0  0
    0.0000    0.0000    0.0000 C   0  0  0  0  0  0  0  0  0  0  0  0
    0.0000    0.0000    0.0000 C   0  0  0  0  0  0  0  0  0  0  0  0
    0.0000    0.0000    0.0000 C   0  0  0  0  0  0  0  0  0  0  0  0
    0.0000    0.0000    0.0000 C   0  0  0  0  0  0  0  0  0  0  0  0
    0.0000    0.0000    0.0000 C   0  0  0  0  0  0  0  0  0  0  0  0
    0.0000    0.0000    0.0000 C   0  0  0  0  0  0  0  0  0  0  0  0
    0.0000    0.0000    0.0000 C   0  0  0  0  0  0  0  0  0  0  0  0
    0.0000    0.0000    0.0000 C   0  0  0  0  0  0  0  0  0  0  0  0
    0.0000    0.0000    0.0000 N   0  0  0  0  0  0  0  0  0  0  0  0
    0.0000    0.0000    0.0000 C   0  0  0  0  0  0  0  0  0  0  0  0
    0.0000    0.0000    0.0000 C   0  0  0  0  0  0  0  0  0  0  0  0
    0.0000    0.0000    0.0000 C   0  0  0  0  0  0  0  0  0  0  0  0
  1  2  1  0
  2  3  1  0
  3  4  2  0
  4  5  1  0
  5  6  1  0
  5  7  2  0
  7  8  1  0
  8  9  1  0
  8 10  2  0
 10 11  1  0
 11 12  3  0
 12 13  1  0
 13 14  1  0
 13 15  1  0
 15 16  2  0
 16 17  1  0
 17 18  1  0
 18 19  1  0
 17 20  2  0
 20 21  1  0
 21 22  2  0
 21 23  1  0
 23 24  2  0
 24 25  1  0
 25 26  2  0
 26 27  1  0
 27 28  2  0
 28 29  1  0
 29 30  2  0
 30 31  1  0
 31 32  2  0
 10  3  1  0
 22 15  1  0
 32 23  1  0
 32 27  1  0
M  END
>  <pIC50>  (491) 
7.35

>  <ChEMBL_ID>  (491) 
CHEMBL2335421

>  <document_journal>  (491) 
Bioorg. Med. Chem. Lett.

>  <bao_endpoint>  (491) 
BAO_0000190

>  <potential_duplicate>  (491) 
False

>  <uo_units>  (491) 
UO_0000065

>  <canonical_smiles>  (491) 
CCc1nc(N)nc(N)c1C#CC(C)c2cc(OC)cc(c2)c3cccc4cnccc34

>  <parent_molecule_chembl_id>  (491) 
CHEMBL2335421

>  <assay_type>  (491) 
B

>  <src_id>  (491) 
1

>  <ligand_efficiency>  (491) 
{u'le': u'0.31', u'bei': u'17.35', u'sei': u'7.35', u'lle': u'2.71'}

>  <standard_flag>  (491) 
True

>  <molecule_chembl_id>  (491) 
CHEMBL2335421

>  <target_organism>  (491) 
Homo sapiens

>  <standard_units>  (491) 
nM

>  <record_id>  (491) 
1870079

>  <document_chembl_id>  (491) 
CHEMBL2331301

>  <bao_format>  (491) 
BAO_0000357

>  <data_validity_description>  (491) 
None

>  <activity_id>  (491) 
12698765

>  <standard_type>  (491) 
IC50

>  <target_chembl_id>  (491) 
CHEMBL202

>  <data_validity_comment>  (491) 
None

>  <published_value>  (491) 
45

>  <document_year>  (491) 
2013

>  <target_pref_name>  (491) 
Dihydrofolate reductase

>  <assay_chembl_id>  (491) 
CHEMBL2340616

>  <standard_relation>  (491) 
=

>  <assay_description>  (491) 
Inhibition of human DHFR

>  <published_relation>  (491) 
=

>  <standard_value>  (491) 
45

>  <qudt_units>  (491) 
http://www.openphacts.org/units/Nanomolar

>  <target_tax_id>  (491) 
9606

>  <bao_label>  (491) 
single protein format

>  <published_units>  (491) 
nM

>  <pchembl_value>  (491) 
7.35

>  <published_type>  (491) 
IC50

>  <activity_comment>  (491) 
None

$$$$

     RDKit          

 31 34  0  0  0  0  0  0  0  0999 V2000
    0.0000    0.0000    0.0000 C   0  0  0  0  0  0  0  0  0  0  0  0
    0.0000    0.0000    0.0000 C   0  0  0  0  0  0  0  0  0  0  0  0
    0.0000    0.0000    0.0000 C   0  0  0  0  0  0  0  0  0  0  0  0
    0.0000    0.0000    0.0000 N   0  0  0  0  0  0  0  0  0  0  0  0
    0.0000    0.0000    0.0000 C   0  0  0  0  0  0  0  0  0  0  0  0
    0.0000    0.0000    0.0000 N   0  0  0  0  0  0  0  0  0  0  0  0
    0.0000    0.0000    0.0000 N   0  0  0  0  0  0  0  0  0  0  0  0
    0.0000    0.0000    0.0000 C   0  0  0  0  0  0  0  0  0  0  0  0
    0.0000    0.0000    0.0000 N   0  0  0  0  0  0  0  0  0  0  0  0
    0.0000    0.0000    0.0000 C   0  0  0  0  0  0  0  0  0  0  0  0
    0.0000    0.0000    0.0000 C   0  0  0  0  0  0  0  0  0  0  0  0
    0.0000    0.0000    0.0000 C   0  0  0  0  0  0  0  0  0  0  0  0
    0.0000    0.0000    0.0000 C   0  0  0  0  0  0  0  0  0  0  0  0
    0.0000    0.0000    0.0000 C   0  0  0  0  0  0  0  0  0  0  0  0
    0.0000    0.0000    0.0000 C   0  0  0  0  0  0  0  0  0  0  0  0
    0.0000    0.0000    0.0000 C   0  0  0  0  0  0  0  0  0  0  0  0
    0.0000    0.0000    0.0000 O   0  0  0  0  0  0  0  0  0  0  0  0
    0.0000    0.0000    0.0000 C   0  0  0  0  0  0  0  0  0  0  0  0
    0.0000    0.0000    0.0000 C   0  0  0  0  0  0  0  0  0  0  0  0
    0.0000    0.0000    0.0000 C   0  0  0  0  0  0  0  0  0  0  0  0
    0.0000    0.0000    0.0000 C   0  0  0  0  0  0  0  0  0  0  0  0
    0.0000    0.0000    0.0000 C   0  0  0  0  0  0  0  0  0  0  0  0
    0.0000    0.0000    0.0000 C   0  0  0  0  0  0  0  0  0  0  0  0
    0.0000    0.0000    0.0000 C   0  0  0  0  0  0  0  0  0  0  0  0
    0.0000    0.0000    0.0000 C   0  0  0  0  0  0  0  0  0  0  0  0
    0.0000    0.0000    0.0000 C   0  0  0  0  0  0  0  0  0  0  0  0
    0.0000    0.0000    0.0000 C   0  0  0  0  0  0  0  0  0  0  0  0
    0.0000    0.0000    0.0000 N   0  0  0  0  0  0  0  0  0  0  0  0
    0.0000    0.0000    0.0000 C   0  0  0  0  0  0  0  0  0  0  0  0
    0.0000    0.0000    0.0000 C   0  0  0  0  0  0  0  0  0  0  0  0
    0.0000    0.0000    0.0000 C   0  0  0  0  0  0  0  0  0  0  0  0
  1  2  1  0
  2  3  1  0
  3  4  2  0
  4  5  1  0
  5  6  1  0
  5  7  2  0
  7  8  1  0
  8  9  1  0
  8 10  2  0
 10 11  1  0
 11 12  3  0
 12 13  1  0
 13 14  1  0
 14 15  2  0
 15 16  1  0
 16 17  1  0
 17 18  1  0
 16 19  2  0
 19 20  1  0
 20 21  2  0
 20 22  1  0
 22 23  2  0
 23 24  1  0
 24 25  2  0
 25 26  1  0
 26 27  2  0
 27 28  1  0
 28 29  2  0
 29 30  1  0
 30 31  2  0
 10  3  1  0
 21 14  1  0
 31 22  1  0
 31 26  1  0
M  END
>  <pIC50>  (492) 
7.22

>  <ChEMBL_ID>  (492) 
CHEMBL2335420

>  <document_journal>  (492) 
Bioorg. Med. Chem. Lett.

>  <bao_endpoint>  (492) 
BAO_0000190

>  <potential_duplicate>  (492) 
False

>  <uo_units>  (492) 
UO_0000065

>  <canonical_smiles>  (492) 
CCc1nc(N)nc(N)c1C#CCc2cc(OC)cc(c2)c3cccc4cnccc34

>  <parent_molecule_chembl_id>  (492) 
CHEMBL2335420

>  <assay_type>  (492) 
B

>  <src_id>  (492) 
1

>  <ligand_efficiency>  (492) 
{u'le': u'0.32', u'bei': u'17.64', u'sei': u'7.23', u'lle': u'2.83'}

>  <standard_flag>  (492) 
True

>  <molecule_chembl_id>  (492) 
CHEMBL2335420

>  <target_organism>  (492) 
Homo sapiens

>  <standard_units>  (492) 
nM

>  <record_id>  (492) 
1870078

>  <document_chembl_id>  (492) 
CHEMBL2331301

>  <bao_format>  (492) 
BAO_0000357

>  <data_validity_description>  (492) 
None

>  <activity_id>  (492) 
12698766

>  <standard_type>  (492) 
IC50

>  <target_chembl_id>  (492) 
CHEMBL202

>  <data_validity_comment>  (492) 
None

>  <published_value>  (492) 
60

>  <document_year>  (492) 
2013

>  <target_pref_name>  (492) 
Dihydrofolate reductase

>  <assay_chembl_id>  (492) 
CHEMBL2340616

>  <standard_relation>  (492) 
=

>  <assay_description>  (492) 
Inhibition of human DHFR

>  <published_relation>  (492) 
=

>  <standard_value>  (492) 
60

>  <qudt_units>  (492) 
http://www.openphacts.org/units/Nanomolar

>  <target_tax_id>  (492) 
9606

>  <bao_label>  (492) 
single protein format

>  <published_units>  (492) 
nM

>  <pchembl_value>  (492) 
7.22

>  <published_type>  (492) 
IC50

>  <activity_comment>  (492) 
None

$$$$

     RDKit          

 28 30  0  0  0  0  0  0  0  0999 V2000
    0.0000    0.0000    0.0000 C   0  0  0  0  0  0  0  0  0  0  0  0
    0.0000    0.0000    0.0000 C   0  0  0  0  0  0  0  0  0  0  0  0
    0.0000    0.0000    0.0000 C   0  0  0  0  0  0  0  0  0  0  0  0
    0.0000    0.0000    0.0000 N   0  0  0  0  0  0  0  0  0  0  0  0
    0.0000    0.0000    0.0000 C   0  0  0  0  0  0  0  0  0  0  0  0
    0.0000    0.0000    0.0000 N   0  0  0  0  0  0  0  0  0  0  0  0
    0.0000    0.0000    0.0000 N   0  0  0  0  0  0  0  0  0  0  0  0
    0.0000    0.0000    0.0000 C   0  0  0  0  0  0  0  0  0  0  0  0
    0.0000    0.0000    0.0000 N   0  0  0  0  0  0  0  0  0  0  0  0
    0.0000    0.0000    0.0000 C   0  0  0  0  0  0  0  0  0  0  0  0
    0.0000    0.0000    0.0000 C   0  0  0  0  0  0  0  0  0  0  0  0
    0.0000    0.0000    0.0000 C   0  0  0  0  0  0  0  0  0  0  0  0
    0.0000    0.0000    0.0000 C   0  0  0  0  0  0  0  0  0  0  0  0
    0.0000    0.0000    0.0000 C   0  0  0  0  0  0  0  0  0  0  0  0
    0.0000    0.0000    0.0000 C   0  0  0  0  0  0  0  0  0  0  0  0
    0.0000    0.0000    0.0000 C   0  0  0  0  0  0  0  0  0  0  0  0
    0.0000    0.0000    0.0000 C   0  0  0  0  0  0  0  0  0  0  0  0
    0.0000    0.0000    0.0000 O   0  0  0  0  0  0  0  0  0  0  0  0
    0.0000    0.0000    0.0000 C   0  0  0  0  0  0  0  0  0  0  0  0
    0.0000    0.0000    0.0000 C   0  0  0  0  0  0  0  0  0  0  0  0
    0.0000    0.0000    0.0000 C   0  0  0  0  0  0  0  0  0  0  0  0
    0.0000    0.0000    0.0000 C   0  0  0  0  0  0  0  0  0  0  0  0
    0.0000    0.0000    0.0000 C   0  0  0  0  0  0  0  0  0  0  0  0
    0.0000    0.0000    0.0000 C   0  0  0  0  0  0  0  0  0  0  0  0
    0.0000    0.0000    0.0000 C   0  0  0  0  0  0  0  0  0  0  0  0
    0.0000    0.0000    0.0000 N   0  0  0  0  0  0  0  0  0  0  0  0
    0.0000    0.0000    0.0000 C   0  0  0  0  0  0  0  0  0  0  0  0
    0.0000    0.0000    0.0000 C   0  0  0  0  0  0  0  0  0  0  0  0
  1  2  1  0
  2  3  1  0
  3  4  2  0
  4  5  1  0
  5  6  1  0
  5  7  2  0
  7  8  1  0
  8  9  1  0
  8 10  2  0
 10 11  1  0
 11 12  3  0
 12 13  1  0
 13 14  1  0
 13 15  1  0
 15 16  2  0
 16 17  1  0
 17 18  1  0
 18 19  1  0
 17 20  2  0
 20 21  1  0
 21 22  2  0
 21 23  1  0
 23 24  2  0
 24 25  1  0
 25 26  2  0
 26 27  1  0
 27 28  2  0
 10  3  1  0
 22 15  1  0
 28 23  1  0
M  END
>  <pIC50>  (493) 
5.89

>  <ChEMBL_ID>  (493) 
CHEMBL2335419

>  <document_journal>  (493) 
Bioorg. Med. Chem. Lett.

>  <bao_endpoint>  (493) 
BAO_0000190

>  <potential_duplicate>  (493) 
False

>  <uo_units>  (493) 
UO_0000065

>  <canonical_smiles>  (493) 
CCc1nc(N)nc(N)c1C#CC(C)c2cc(OC)cc(c2)c3ccncc3

>  <parent_molecule_chembl_id>  (493) 
CHEMBL2335419

>  <assay_type>  (493) 
B

>  <src_id>  (493) 
1

>  <ligand_efficiency>  (493) 
{u'le': u'0.29', u'bei': u'15.76', u'sei': u'5.89', u'lle': u'2.15'}

>  <standard_flag>  (493) 
True

>  <molecule_chembl_id>  (493) 
CHEMBL2335419

>  <target_organism>  (493) 
Homo sapiens

>  <standard_units>  (493) 
nM

>  <record_id>  (493) 
1870077

>  <document_chembl_id>  (493) 
CHEMBL2331301

>  <bao_format>  (493) 
BAO_0000357

>  <data_validity_description>  (493) 
None

>  <activity_id>  (493) 
12698767

>  <standard_type>  (493) 
IC50

>  <target_chembl_id>  (493) 
CHEMBL202

>  <data_validity_comment>  (493) 
None

>  <published_value>  (493) 
1300

>  <document_year>  (493) 
2013

>  <target_pref_name>  (493) 
Dihydrofolate reductase

>  <assay_chembl_id>  (493) 
CHEMBL2340616

>  <standard_relation>  (493) 
=

>  <assay_description>  (493) 
Inhibition of human DHFR

>  <published_relation>  (493) 
=

>  <standard_value>  (493) 
1300

>  <qudt_units>  (493) 
http://www.openphacts.org/units/Nanomolar

>  <target_tax_id>  (493) 
9606

>  <bao_label>  (493) 
single protein format

>  <published_units>  (493) 
nM

>  <pchembl_value>  (493) 
5.89

>  <published_type>  (493) 
IC50

>  <activity_comment>  (493) 
None

$$$$

     RDKit          

 27 29  0  0  0  0  0  0  0  0999 V2000
    0.0000    0.0000    0.0000 C   0  0  0  0  0  0  0  0  0  0  0  0
    0.0000    0.0000    0.0000 O   0  0  0  0  0  0  0  0  0  0  0  0
    0.0000    0.0000    0.0000 C   0  0  0  0  0  0  0  0  0  0  0  0
    0.0000    0.0000    0.0000 C   0  0  0  0  0  0  0  0  0  0  0  0
    0.0000    0.0000    0.0000 C   0  0  0  0  0  0  0  0  0  0  0  0
    0.0000    0.0000    0.0000 C   0  0  0  0  0  0  0  0  0  0  0  0
    0.0000    0.0000    0.0000 C   0  0  0  0  0  0  0  0  0  0  0  0
    0.0000    0.0000    0.0000 C   0  0  0  0  0  0  0  0  0  0  0  0
    0.0000    0.0000    0.0000 C   0  0  0  0  0  0  0  0  0  0  0  0
    0.0000    0.0000    0.0000 C   0  0  0  0  0  0  0  0  0  0  0  0
    0.0000    0.0000    0.0000 C   0  0  0  0  0  0  0  0  0  0  0  0
    0.0000    0.0000    0.0000 N   0  0  0  0  0  0  0  0  0  0  0  0
    0.0000    0.0000    0.0000 C   0  0  0  0  0  0  0  0  0  0  0  0
    0.0000    0.0000    0.0000 C   0  0  0  0  0  0  0  0  0  0  0  0
    0.0000    0.0000    0.0000 C   0  0  0  0  0  0  0  0  0  0  0  0
    0.0000    0.0000    0.0000 C   0  0  0  0  0  0  0  0  0  0  0  0
    0.0000    0.0000    0.0000 C   0  0  0  0  0  0  0  0  0  0  0  0
    0.0000    0.0000    0.0000 C   0  0  0  0  0  0  0  0  0  0  0  0
    0.0000    0.0000    0.0000 C   0  0  0  0  0  0  0  0  0  0  0  0
    0.0000    0.0000    0.0000 C   0  0  0  0  0  0  0  0  0  0  0  0
    0.0000    0.0000    0.0000 C   0  0  0  0  0  0  0  0  0  0  0  0
    0.0000    0.0000    0.0000 N   0  0  0  0  0  0  0  0  0  0  0  0
    0.0000    0.0000    0.0000 C   0  0  0  0  0  0  0  0  0  0  0  0
    0.0000    0.0000    0.0000 N   0  0  0  0  0  0  0  0  0  0  0  0
    0.0000    0.0000    0.0000 N   0  0  0  0  0  0  0  0  0  0  0  0
    0.0000    0.0000    0.0000 C   0  0  0  0  0  0  0  0  0  0  0  0
    0.0000    0.0000    0.0000 N   0  0  0  0  0  0  0  0  0  0  0  0
  1  2  1  0
  2  3  1  0
  3  4  2  0
  4  5  1  0
  5  6  2  0
  6  7  1  0
  7  8  2  0
  7  9  1  0
  9 10  2  0
 10 11  1  0
 11 12  2  0
 12 13  1  0
 13 14  2  0
  5 15  1  0
 15 16  1  0
 15 17  1  0
 17 18  3  0
 18 19  1  0
 19 20  2  0
 20 21  1  0
 20 22  1  0
 22 23  2  0
 23 24  1  0
 23 25  1  0
 25 26  2  0
 26 27  1  0
  8  3  1  0
 14  9  1  0
 26 19  1  0
M  END
>  <pIC50>  (494) 
5.82

>  <ChEMBL_ID>  (494) 
CHEMBL2335418

>  <document_journal>  (494) 
Bioorg. Med. Chem. Lett.

>  <bao_endpoint>  (494) 
BAO_0000190

>  <potential_duplicate>  (494) 
False

>  <uo_units>  (494) 
UO_0000065

>  <canonical_smiles>  (494) 
COc1cc(cc(c1)c2ccncc2)C(C)C#Cc3c(C)nc(N)nc3N

>  <parent_molecule_chembl_id>  (494) 
CHEMBL2335418

>  <assay_type>  (494) 
B

>  <src_id>  (494) 
1

>  <ligand_efficiency>  (494) 
{u'le': u'0.29', u'bei': u'16.2', u'sei': u'5.83', u'lle': u'2.75'}

>  <standard_flag>  (494) 
True

>  <molecule_chembl_id>  (494) 
CHEMBL2335418

>  <target_organism>  (494) 
Homo sapiens

>  <standard_units>  (494) 
nM

>  <record_id>  (494) 
1870076

>  <document_chembl_id>  (494) 
CHEMBL2331301

>  <bao_format>  (494) 
BAO_0000357

>  <data_validity_description>  (494) 
None

>  <activity_id>  (494) 
12698768

>  <standard_type>  (494) 
IC50

>  <target_chembl_id>  (494) 
CHEMBL202

>  <data_validity_comment>  (494) 
None

>  <published_value>  (494) 
1500

>  <document_year>  (494) 
2013

>  <target_pref_name>  (494) 
Dihydrofolate reductase

>  <assay_chembl_id>  (494) 
CHEMBL2340616

>  <standard_relation>  (494) 
=

>  <assay_description>  (494) 
Inhibition of human DHFR

>  <published_relation>  (494) 
=

>  <standard_value>  (494) 
1500

>  <qudt_units>  (494) 
http://www.openphacts.org/units/Nanomolar

>  <target_tax_id>  (494) 
9606

>  <bao_label>  (494) 
single protein format

>  <published_units>  (494) 
nM

>  <pchembl_value>  (494) 
5.82

>  <published_type>  (494) 
IC50

>  <activity_comment>  (494) 
None

$$$$

     RDKit          

 28 30  0  0  0  0  0  0  0  0999 V2000
    0.0000    0.0000    0.0000 C   0  0  0  0  0  0  0  0  0  0  0  0
    0.0000    0.0000    0.0000 C   0  0  0  0  0  0  0  0  0  0  0  0
    0.0000    0.0000    0.0000 C   0  0  0  0  0  0  0  0  0  0  0  0
    0.0000    0.0000    0.0000 N   0  0  0  0  0  0  0  0  0  0  0  0
    0.0000    0.0000    0.0000 C   0  0  0  0  0  0  0  0  0  0  0  0
    0.0000    0.0000    0.0000 N   0  0  0  0  0  0  0  0  0  0  0  0
    0.0000    0.0000    0.0000 N   0  0  0  0  0  0  0  0  0  0  0  0
    0.0000    0.0000    0.0000 C   0  0  0  0  0  0  0  0  0  0  0  0
    0.0000    0.0000    0.0000 N   0  0  0  0  0  0  0  0  0  0  0  0
    0.0000    0.0000    0.0000 C   0  0  0  0  0  0  0  0  0  0  0  0
    0.0000    0.0000    0.0000 C   0  0  0  0  0  0  0  0  0  0  0  0
    0.0000    0.0000    0.0000 C   0  0  0  0  0  0  0  0  0  0  0  0
    0.0000    0.0000    0.0000 C   0  0  0  0  0  0  0  0  0  0  0  0
    0.0000    0.0000    0.0000 C   0  0  0  0  0  0  0  0  0  0  0  0
    0.0000    0.0000    0.0000 C   0  0  0  0  0  0  0  0  0  0  0  0
    0.0000    0.0000    0.0000 C   0  0  0  0  0  0  0  0  0  0  0  0
    0.0000    0.0000    0.0000 C   0  0  0  0  0  0  0  0  0  0  0  0
    0.0000    0.0000    0.0000 O   0  0  0  0  0  0  0  0  0  0  0  0
    0.0000    0.0000    0.0000 C   0  0  0  0  0  0  0  0  0  0  0  0
    0.0000    0.0000    0.0000 C   0  0  0  0  0  0  0  0  0  0  0  0
    0.0000    0.0000    0.0000 C   0  0  0  0  0  0  0  0  0  0  0  0
    0.0000    0.0000    0.0000 C   0  0  0  0  0  0  0  0  0  0  0  0
    0.0000    0.0000    0.0000 N   0  0  0  0  0  0  0  0  0  0  0  0
    0.0000    0.0000    0.0000 C   0  0  0  0  0  0  0  0  0  0  0  0
    0.0000    0.0000    0.0000 C   0  0  0  0  0  0  0  0  0  0  0  0
    0.0000    0.0000    0.0000 O   0  0  0  0  0  0  0  0  0  0  0  0
    0.0000    0.0000    0.0000 C   0  0  0  0  0  0  0  0  0  0  0  0
    0.0000    0.0000    0.0000 C   0  0  0  0  0  0  0  0  0  0  0  0
  1  2  1  0
  2  3  1  0
  3  4  2  0
  4  5  1  0
  5  6  1  0
  5  7  2  0
  7  8  1  0
  8  9  1  0
  8 10  2  0
 10 11  1  0
 11 12  3  0
 12 13  1  0
 13 14  1  0
 13 15  1  0
 15 16  2  0
 16 17  1  0
 17 18  1  0
 18 19  1  0
 17 20  2  0
 20 21  1  0
 21 22  2  0
 21 23  1  0
 23 24  1  0
 24 25  1  0
 25 26  1  0
 26 27  1  0
 27 28  1  0
 10  3  1  0
 22 15  1  0
 28 23  1  0
M  END
>  <pIC50>  (495) 
6.6

>  <ChEMBL_ID>  (495) 
CHEMBL2335417

>  <document_journal>  (495) 
Bioorg. Med. Chem. Lett.

>  <bao_endpoint>  (495) 
BAO_0000190

>  <potential_duplicate>  (495) 
False

>  <uo_units>  (495) 
UO_0000065

>  <canonical_smiles>  (495) 
CCc1nc(N)nc(N)c1C#CC(C)c2cc(OC)cc(c2)N3CCOCC3

>  <parent_molecule_chembl_id>  (495) 
CHEMBL2335417

>  <assay_type>  (495) 
B

>  <src_id>  (495) 
1

>  <ligand_efficiency>  (495) 
{u'le': u'0.32', u'bei': u'17.31', u'sei': u'6.63', u'lle': u'3.38'}

>  <standard_flag>  (495) 
True

>  <molecule_chembl_id>  (495) 
CHEMBL2335417

>  <target_organism>  (495) 
Homo sapiens

>  <standard_units>  (495) 
nM

>  <record_id>  (495) 
1870075

>  <document_chembl_id>  (495) 
CHEMBL2331301

>  <bao_format>  (495) 
BAO_0000357

>  <data_validity_description>  (495) 
None

>  <activity_id>  (495) 
12698769

>  <standard_type>  (495) 
IC50

>  <target_chembl_id>  (495) 
CHEMBL202

>  <data_validity_comment>  (495) 
None

>  <published_value>  (495) 
250

>  <document_year>  (495) 
2013

>  <target_pref_name>  (495) 
Dihydrofolate reductase

>  <assay_chembl_id>  (495) 
CHEMBL2340616

>  <standard_relation>  (495) 
=

>  <assay_description>  (495) 
Inhibition of human DHFR

>  <published_relation>  (495) 
=

>  <standard_value>  (495) 
250

>  <qudt_units>  (495) 
http://www.openphacts.org/units/Nanomolar

>  <target_tax_id>  (495) 
9606

>  <bao_label>  (495) 
single protein format

>  <published_units>  (495) 
nM

>  <pchembl_value>  (495) 
6.6

>  <published_type>  (495) 
IC50

>  <activity_comment>  (495) 
None

$$$$

     RDKit          

 27 29  0  0  0  0  0  0  0  0999 V2000
    0.0000    0.0000    0.0000 C   0  0  0  0  0  0  0  0  0  0  0  0
    0.0000    0.0000    0.0000 O   0  0  0  0  0  0  0  0  0  0  0  0
    0.0000    0.0000    0.0000 C   0  0  0  0  0  0  0  0  0  0  0  0
    0.0000    0.0000    0.0000 C   0  0  0  0  0  0  0  0  0  0  0  0
    0.0000    0.0000    0.0000 C   0  0  0  0  0  0  0  0  0  0  0  0
    0.0000    0.0000    0.0000 C   0  0  0  0  0  0  0  0  0  0  0  0
    0.0000    0.0000    0.0000 C   0  0  0  0  0  0  0  0  0  0  0  0
    0.0000    0.0000    0.0000 C   0  0  0  0  0  0  0  0  0  0  0  0
    0.0000    0.0000    0.0000 N   0  0  0  0  0  0  0  0  0  0  0  0
    0.0000    0.0000    0.0000 C   0  0  0  0  0  0  0  0  0  0  0  0
    0.0000    0.0000    0.0000 C   0  0  0  0  0  0  0  0  0  0  0  0
    0.0000    0.0000    0.0000 O   0  0  0  0  0  0  0  0  0  0  0  0
    0.0000    0.0000    0.0000 C   0  0  0  0  0  0  0  0  0  0  0  0
    0.0000    0.0000    0.0000 C   0  0  0  0  0  0  0  0  0  0  0  0
    0.0000    0.0000    0.0000 C   0  0  0  0  0  0  0  0  0  0  0  0
    0.0000    0.0000    0.0000 C   0  0  0  0  0  0  0  0  0  0  0  0
    0.0000    0.0000    0.0000 C   0  0  0  0  0  0  0  0  0  0  0  0
    0.0000    0.0000    0.0000 C   0  0  0  0  0  0  0  0  0  0  0  0
    0.0000    0.0000    0.0000 C   0  0  0  0  0  0  0  0  0  0  0  0
    0.0000    0.0000    0.0000 C   0  0  0  0  0  0  0  0  0  0  0  0
    0.0000    0.0000    0.0000 C   0  0  0  0  0  0  0  0  0  0  0  0
    0.0000    0.0000    0.0000 N   0  0  0  0  0  0  0  0  0  0  0  0
    0.0000    0.0000    0.0000 C   0  0  0  0  0  0  0  0  0  0  0  0
    0.0000    0.0000    0.0000 N   0  0  0  0  0  0  0  0  0  0  0  0
    0.0000    0.0000    0.0000 N   0  0  0  0  0  0  0  0  0  0  0  0
    0.0000    0.0000    0.0000 C   0  0  0  0  0  0  0  0  0  0  0  0
    0.0000    0.0000    0.0000 N   0  0  0  0  0  0  0  0  0  0  0  0
  1  2  1  0
  2  3  1  0
  3  4  2  0
  4  5  1  0
  5  6  2  0
  6  7  1  0
  7  8  2  0
  7  9  1  0
  9 10  1  0
 10 11  1  0
 11 12  1  0
 12 13  1  0
 13 14  1  0
  5 15  1  0
 15 16  1  0
 15 17  1  0
 17 18  3  0
 18 19  1  0
 19 20  2  0
 20 21  1  0
 20 22  1  0
 22 23  2  0
 23 24  1  0
 23 25  1  0
 25 26  2  0
 26 27  1  0
  8  3  1  0
 14  9  1  0
 26 19  1  0
M  END
>  <pIC50>  (496) 
6.4

>  <ChEMBL_ID>  (496) 
CHEMBL2335416

>  <document_journal>  (496) 
Bioorg. Med. Chem. Lett.

>  <bao_endpoint>  (496) 
BAO_0000190

>  <potential_duplicate>  (496) 
False

>  <uo_units>  (496) 
UO_0000065

>  <canonical_smiles>  (496) 
COc1cc(cc(c1)N2CCOCC2)C(C)C#Cc3c(C)nc(N)nc3N

>  <parent_molecule_chembl_id>  (496) 
CHEMBL2335416

>  <assay_type>  (496) 
B

>  <src_id>  (496) 
1

>  <ligand_efficiency>  (496) 
{u'le': u'0.32', u'bei': u'17.41', u'sei': u'6.43', u'lle': u'3.85'}

>  <standard_flag>  (496) 
True

>  <molecule_chembl_id>  (496) 
CHEMBL2335416

>  <target_organism>  (496) 
Homo sapiens

>  <standard_units>  (496) 
nM

>  <record_id>  (496) 
1870074

>  <document_chembl_id>  (496) 
CHEMBL2331301

>  <bao_format>  (496) 
BAO_0000357

>  <data_validity_description>  (496) 
None

>  <activity_id>  (496) 
12698770

>  <standard_type>  (496) 
IC50

>  <target_chembl_id>  (496) 
CHEMBL202

>  <data_validity_comment>  (496) 
None

>  <published_value>  (496) 
400

>  <document_year>  (496) 
2013

>  <target_pref_name>  (496) 
Dihydrofolate reductase

>  <assay_chembl_id>  (496) 
CHEMBL2340616

>  <standard_relation>  (496) 
=

>  <assay_description>  (496) 
Inhibition of human DHFR

>  <published_relation>  (496) 
=

>  <standard_value>  (496) 
400

>  <qudt_units>  (496) 
http://www.openphacts.org/units/Nanomolar

>  <target_tax_id>  (496) 
9606

>  <bao_label>  (496) 
single protein format

>  <published_units>  (496) 
nM

>  <pchembl_value>  (496) 
6.4

>  <published_type>  (496) 
IC50

>  <activity_comment>  (496) 
None

$$$$

     RDKit          

 23 25  0  0  0  0  0  0  0  0999 V2000
    0.0000    0.0000    0.0000 C   0  0  0  0  0  0  0  0  0  0  0  0
    0.0000    0.0000    0.0000 N   0  0  0  0  0  0  0  0  0  0  0  0
    0.0000    0.0000    0.0000 C   0  0  0  0  0  0  0  0  0  0  0  0
    0.0000    0.0000    0.0000 C   0  0  0  0  0  0  0  0  0  0  0  0
    0.0000    0.0000    0.0000 N   0  0  0  0  0  0  0  0  0  0  0  0
    0.0000    0.0000    0.0000 C   0  0  0  0  0  0  0  0  0  0  0  0
    0.0000    0.0000    0.0000 N   0  0  0  0  0  0  0  0  0  0  0  0
    0.0000    0.0000    0.0000 C   0  0  0  0  0  0  0  0  0  0  0  0
    0.0000    0.0000    0.0000 N   0  0  0  0  0  0  0  0  0  0  0  0
    0.0000    0.0000    0.0000 N   0  0  0  0  0  0  0  0  0  0  0  0
    0.0000    0.0000    0.0000 C   0  0  0  0  0  0  0  0  0  0  0  0
    0.0000    0.0000    0.0000 N   0  0  0  0  0  0  0  0  0  0  0  0
    0.0000    0.0000    0.0000 C   0  0  0  0  0  0  0  0  0  0  0  0
    0.0000    0.0000    0.0000 C   0  0  0  0  0  0  0  0  0  0  0  0
    0.0000    0.0000    0.0000 C   0  0  0  0  0  0  0  0  0  0  0  0
    0.0000    0.0000    0.0000 C   0  0  0  0  0  0  0  0  0  0  0  0
    0.0000    0.0000    0.0000 C   0  0  0  0  0  0  0  0  0  0  0  0
    0.0000    0.0000    0.0000 F   0  0  0  0  0  0  0  0  0  0  0  0
    0.0000    0.0000    0.0000 C   0  0  0  0  0  0  0  0  0  0  0  0
    0.0000    0.0000    0.0000 F   0  0  0  0  0  0  0  0  0  0  0  0
    0.0000    0.0000    0.0000 C   0  0  0  0  0  0  0  0  0  0  0  0
    0.0000    0.0000    0.0000 F   0  0  0  0  0  0  0  0  0  0  0  0
    0.0000    0.0000    0.0000 C   0  0  0  0  0  0  0  0  0  0  0  0
  1  2  1  0
  2  3  1  0
  3  4  2  0
  4  5  1  0
  5  6  2  0
  6  7  1  0
  7  8  2  0
  8  9  1  0
  8 10  1  0
 10 11  2  0
 11 12  1  0
 11 13  1  0
 13 14  2  0
  2 15  1  0
 15 16  2  0
 16 17  1  0
 17 18  1  0
 17 19  2  0
 19 20  1  0
 19 21  1  0
 21 22  1  0
 21 23  2  0
 14  3  1  0
 13  6  1  0
 23 15  1  0
M  END
>  <pIC50>  (497) 
6.82

>  <ChEMBL_ID>  (497) 
CHEMBL2382336

>  <document_journal>  (497) 
J. Med. Chem.

>  <bao_endpoint>  (497) 
BAO_0000190

>  <potential_duplicate>  (497) 
False

>  <uo_units>  (497) 
UO_0000065

>  <canonical_smiles>  (497) 
CN(c1cnc2nc(N)nc(N)c2c1)c3cc(F)c(F)c(F)c3

>  <parent_molecule_chembl_id>  (497) 
CHEMBL2382336

>  <assay_type>  (497) 
B

>  <src_id>  (497) 
1

>  <ligand_efficiency>  (497) 
{u'le': u'0.41', u'bei': u'21.31', u'sei': u'7.26', u'lle': u'4.45'}

>  <standard_flag>  (497) 
True

>  <molecule_chembl_id>  (497) 
CHEMBL2382336

>  <target_organism>  (497) 
Homo sapiens

>  <standard_units>  (497) 
nM

>  <record_id>  (497) 
1895098

>  <document_chembl_id>  (497) 
CHEMBL2380288

>  <bao_format>  (497) 
BAO_0000357

>  <data_validity_description>  (497) 
None

>  <activity_id>  (497) 
13297385

>  <standard_type>  (497) 
IC50

>  <target_chembl_id>  (497) 
CHEMBL202

>  <data_validity_comment>  (497) 
None

>  <published_value>  (497) 
0.15

>  <document_year>  (497) 
2013

>  <target_pref_name>  (497) 
Dihydrofolate reductase

>  <assay_chembl_id>  (497) 
CHEMBL2384165

>  <standard_relation>  (497) 
=

>  <assay_description>  (497) 
Inhibition of human recombinant DHFR

>  <published_relation>  (497) 
=

>  <standard_value>  (497) 
150

>  <qudt_units>  (497) 
http://www.openphacts.org/units/Nanomolar

>  <target_tax_id>  (497) 
9606

>  <bao_label>  (497) 
single protein format

>  <published_units>  (497) 
uM

>  <pchembl_value>  (497) 
6.82

>  <published_type>  (497) 
IC50

>  <activity_comment>  (497) 
None

$$$$

     RDKit          

 22 24  0  0  0  0  0  0  0  0999 V2000
    0.0000    0.0000    0.0000 C   0  0  0  0  0  0  0  0  0  0  0  0
    0.0000    0.0000    0.0000 N   0  0  0  0  0  0  0  0  0  0  0  0
    0.0000    0.0000    0.0000 C   0  0  0  0  0  0  0  0  0  0  0  0
    0.0000    0.0000    0.0000 C   0  0  0  0  0  0  0  0  0  0  0  0
    0.0000    0.0000    0.0000 N   0  0  0  0  0  0  0  0  0  0  0  0
    0.0000    0.0000    0.0000 C   0  0  0  0  0  0  0  0  0  0  0  0
    0.0000    0.0000    0.0000 N   0  0  0  0  0  0  0  0  0  0  0  0
    0.0000    0.0000    0.0000 C   0  0  0  0  0  0  0  0  0  0  0  0
    0.0000    0.0000    0.0000 N   0  0  0  0  0  0  0  0  0  0  0  0
    0.0000    0.0000    0.0000 N   0  0  0  0  0  0  0  0  0  0  0  0
    0.0000    0.0000    0.0000 C   0  0  0  0  0  0  0  0  0  0  0  0
    0.0000    0.0000    0.0000 N   0  0  0  0  0  0  0  0  0  0  0  0
    0.0000    0.0000    0.0000 C   0  0  0  0  0  0  0  0  0  0  0  0
    0.0000    0.0000    0.0000 C   0  0  0  0  0  0  0  0  0  0  0  0
    0.0000    0.0000    0.0000 C   0  0  0  0  0  0  0  0  0  0  0  0
    0.0000    0.0000    0.0000 C   0  0  0  0  0  0  0  0  0  0  0  0
    0.0000    0.0000    0.0000 C   0  0  0  0  0  0  0  0  0  0  0  0
    0.0000    0.0000    0.0000 F   0  0  0  0  0  0  0  0  0  0  0  0
    0.0000    0.0000    0.0000 C   0  0  0  0  0  0  0  0  0  0  0  0
    0.0000    0.0000    0.0000 C   0  0  0  0  0  0  0  0  0  0  0  0
    0.0000    0.0000    0.0000 C   0  0  0  0  0  0  0  0  0  0  0  0
    0.0000    0.0000    0.0000 F   0  0  0  0  0  0  0  0  0  0  0  0
  1  2  1  0
  2  3  1  0
  3  4  2  0
  4  5  1  0
  5  6  2  0
  6  7  1  0
  7  8  2  0
  8  9  1  0
  8 10  1  0
 10 11  2  0
 11 12  1  0
 11 13  1  0
 13 14  2  0
  2 15  1  0
 15 16  2  0
 16 17  1  0
 17 18  1  0
 17 19  2  0
 19 20  1  0
 20 21  2  0
 21 22  1  0
 14  3  1  0
 13  6  1  0
 21 15  1  0
M  END
>  <pIC50>  (498) 
7.34

>  <ChEMBL_ID>  (498) 
CHEMBL2382335

>  <document_journal>  (498) 
J. Med. Chem.

>  <bao_endpoint>  (498) 
BAO_0000190

>  <potential_duplicate>  (498) 
False

>  <uo_units>  (498) 
UO_0000065

>  <canonical_smiles>  (498) 
CN(c1cnc2nc(N)nc(N)c2c1)c3cc(F)ccc3F

>  <parent_molecule_chembl_id>  (498) 
CHEMBL2382335

>  <assay_type>  (498) 
B

>  <src_id>  (498) 
1

>  <ligand_efficiency>  (498) 
{u'le': u'0.46', u'bei': u'24.27', u'sei': u'7.81', u'lle': u'5.17'}

>  <standard_flag>  (498) 
True

>  <molecule_chembl_id>  (498) 
CHEMBL2382335

>  <target_organism>  (498) 
Homo sapiens

>  <standard_units>  (498) 
nM

>  <record_id>  (498) 
1895097

>  <document_chembl_id>  (498) 
CHEMBL2380288

>  <bao_format>  (498) 
BAO_0000357

>  <data_validity_description>  (498) 
None

>  <activity_id>  (498) 
13297386

>  <standard_type>  (498) 
IC50

>  <target_chembl_id>  (498) 
CHEMBL202

>  <data_validity_comment>  (498) 
None

>  <published_value>  (498) 
0.046

>  <document_year>  (498) 
2013

>  <target_pref_name>  (498) 
Dihydrofolate reductase

>  <assay_chembl_id>  (498) 
CHEMBL2384165

>  <standard_relation>  (498) 
=

>  <assay_description>  (498) 
Inhibition of human recombinant DHFR

>  <published_relation>  (498) 
=

>  <standard_value>  (498) 
46

>  <qudt_units>  (498) 
http://www.openphacts.org/units/Nanomolar

>  <target_tax_id>  (498) 
9606

>  <bao_label>  (498) 
single protein format

>  <published_units>  (498) 
uM

>  <pchembl_value>  (498) 
7.34

>  <published_type>  (498) 
IC50

>  <activity_comment>  (498) 
None

$$$$

     RDKit          

 24 27  0  0  0  0  0  0  0  0999 V2000
    0.0000    0.0000    0.0000 C   0  0  0  0  0  0  0  0  0  0  0  0
    0.0000    0.0000    0.0000 N   0  0  0  0  0  0  0  0  0  0  0  0
    0.0000    0.0000    0.0000 C   0  0  0  0  0  0  0  0  0  0  0  0
    0.0000    0.0000    0.0000 C   0  0  0  0  0  0  0  0  0  0  0  0
    0.0000    0.0000    0.0000 N   0  0  0  0  0  0  0  0  0  0  0  0
    0.0000    0.0000    0.0000 C   0  0  0  0  0  0  0  0  0  0  0  0
    0.0000    0.0000    0.0000 N   0  0  0  0  0  0  0  0  0  0  0  0
    0.0000    0.0000    0.0000 C   0  0  0  0  0  0  0  0  0  0  0  0
    0.0000    0.0000    0.0000 N   0  0  0  0  0  0  0  0  0  0  0  0
    0.0000    0.0000    0.0000 N   0  0  0  0  0  0  0  0  0  0  0  0
    0.0000    0.0000    0.0000 C   0  0  0  0  0  0  0  0  0  0  0  0
    0.0000    0.0000    0.0000 N   0  0  0  0  0  0  0  0  0  0  0  0
    0.0000    0.0000    0.0000 C   0  0  0  0  0  0  0  0  0  0  0  0
    0.0000    0.0000    0.0000 C   0  0  0  0  0  0  0  0  0  0  0  0
    0.0000    0.0000    0.0000 C   0  0  0  0  0  0  0  0  0  0  0  0
    0.0000    0.0000    0.0000 C   0  0  0  0  0  0  0  0  0  0  0  0
    0.0000    0.0000    0.0000 C   0  0  0  0  0  0  0  0  0  0  0  0
    0.0000    0.0000    0.0000 C   0  0  0  0  0  0  0  0  0  0  0  0
    0.0000    0.0000    0.0000 C   0  0  0  0  0  0  0  0  0  0  0  0
    0.0000    0.0000    0.0000 C   0  0  0  0  0  0  0  0  0  0  0  0
    0.0000    0.0000    0.0000 C   0  0  0  0  0  0  0  0  0  0  0  0
    0.0000    0.0000    0.0000 C   0  0  0  0  0  0  0  0  0  0  0  0
    0.0000    0.0000    0.0000 C   0  0  0  0  0  0  0  0  0  0  0  0
    0.0000    0.0000    0.0000 C   0  0  0  0  0  0  0  0  0  0  0  0
  1  2  1  0
  2  3  1  0
  3  4  2  0
  4  5  1  0
  5  6  2  0
  6  7  1  0
  7  8  2  0
  8  9  1  0
  8 10  1  0
 10 11  2  0
 11 12  1  0
 11 13  1  0
 13 14  2  0
  2 15  1  0
 15 16  2  0
 16 17  1  0
 17 18  2  0
 18 19  1  0
 19 20  2  0
 20 21  1  0
 21 22  2  0
 22 23  1  0
 23 24  2  0
 14  3  1  0
 13  6  1  0
 24 15  1  0
 24 19  1  0
M  END
>  <pIC50>  (499) 
8.25

>  <ChEMBL_ID>  (499) 
CHEMBL2382334

>  <document_journal>  (499) 
J. Med. Chem.

>  <bao_endpoint>  (499) 
BAO_0000190

>  <potential_duplicate>  (499) 
False

>  <uo_units>  (499) 
UO_0000065

>  <canonical_smiles>  (499) 
CN(c1cnc2nc(N)nc(N)c2c1)c3cccc4ccccc34

>  <parent_molecule_chembl_id>  (499) 
CHEMBL2382334

>  <assay_type>  (499) 
B

>  <src_id>  (499) 
1

>  <ligand_efficiency>  (499) 
{u'le': u'0.47', u'bei': u'26.08', u'sei': u'8.78', u'lle': u'5.59'}

>  <standard_flag>  (499) 
True

>  <molecule_chembl_id>  (499) 
CHEMBL2382334

>  <target_organism>  (499) 
Homo sapiens

>  <standard_units>  (499) 
nM

>  <record_id>  (499) 
1895096

>  <document_chembl_id>  (499) 
CHEMBL2380288

>  <bao_format>  (499) 
BAO_0000357

>  <data_validity_description>  (499) 
None

>  <activity_id>  (499) 
13297387

>  <standard_type>  (499) 
IC50

>  <target_chembl_id>  (499) 
CHEMBL202

>  <data_validity_comment>  (499) 
None

>  <published_value>  (499) 
0.0056

>  <document_year>  (499) 
2013

>  <target_pref_name>  (499) 
Dihydrofolate reductase

>  <assay_chembl_id>  (499) 
CHEMBL2384165

>  <standard_relation>  (499) 
=

>  <assay_description>  (499) 
Inhibition of human recombinant DHFR

>  <published_relation>  (499) 
=

>  <standard_value>  (499) 
5.6

>  <qudt_units>  (499) 
http://www.openphacts.org/units/Nanomolar

>  <target_tax_id>  (499) 
9606

>  <bao_label>  (499) 
single protein format

>  <published_units>  (499) 
uM

>  <pchembl_value>  (499) 
8.25

>  <published_type>  (499) 
IC50

>  <activity_comment>  (499) 
None

$$$$

     RDKit          

 23 25  0  0  0  0  0  0  0  0999 V2000
    0.0000    0.0000    0.0000 C   0  0  0  0  0  0  0  0  0  0  0  0
    0.0000    0.0000    0.0000 N   0  0  0  0  0  0  0  0  0  0  0  0
    0.0000    0.0000    0.0000 C   0  0  0  0  0  0  0  0  0  0  0  0
    0.0000    0.0000    0.0000 C   0  0  0  0  0  0  0  0  0  0  0  0
    0.0000    0.0000    0.0000 C   0  0  0  0  0  0  0  0  0  0  0  0
    0.0000    0.0000    0.0000 C   0  0  0  0  0  0  0  0  0  0  0  0
    0.0000    0.0000    0.0000 C   0  0  0  0  0  0  0  0  0  0  0  0
    0.0000    0.0000    0.0000 C   0  0  0  0  0  0  0  0  0  0  0  0
    0.0000    0.0000    0.0000 N   0  0  0  0  0  0  0  0  0  0  0  0
    0.0000    0.0000    0.0000 O   0  0  0  0  0  0  0  0  0  0  0  0
    0.0000    0.0000    0.0000 O   0  0  0  0  0  0  0  0  0  0  0  0
    0.0000    0.0000    0.0000 C   0  0  0  0  0  0  0  0  0  0  0  0
    0.0000    0.0000    0.0000 C   0  0  0  0  0  0  0  0  0  0  0  0
    0.0000    0.0000    0.0000 N   0  0  0  0  0  0  0  0  0  0  0  0
    0.0000    0.0000    0.0000 C   0  0  0  0  0  0  0  0  0  0  0  0
    0.0000    0.0000    0.0000 N   0  0  0  0  0  0  0  0  0  0  0  0
    0.0000    0.0000    0.0000 C   0  0  0  0  0  0  0  0  0  0  0  0
    0.0000    0.0000    0.0000 N   0  0  0  0  0  0  0  0  0  0  0  0
    0.0000    0.0000    0.0000 N   0  0  0  0  0  0  0  0  0  0  0  0
    0.0000    0.0000    0.0000 C   0  0  0  0  0  0  0  0  0  0  0  0
    0.0000    0.0000    0.0000 N   0  0  0  0  0  0  0  0  0  0  0  0
    0.0000    0.0000    0.0000 C   0  0  0  0  0  0  0  0  0  0  0  0
    0.0000    0.0000    0.0000 C   0  0  0  0  0  0  0  0  0  0  0  0
  1  2  1  0
  2  3  1  0
  3  4  2  0
  4  5  1  0
  5  6  2  0
  6  7  1  0
  7  8  2  0
  6  9  1  0
  9 10  2  0
  9 11  1  0
  2 12  1  0
 12 13  2  0
 13 14  1  0
 14 15  2  0
 15 16  1  0
 16 17  2  0
 17 18  1  0
 17 19  1  0
 19 20  2  0
 20 21  1  0
 20 22  1  0
 22 23  2  0
  8  3  1  0
 23 12  1  0
 22 15  1  0
M  CHG  2   9   1  11  -1
M  END
>  <pIC50>  (500) 
6.47

>  <ChEMBL_ID>  (500) 
CHEMBL2382333

>  <document_journal>  (500) 
J. Med. Chem.

>  <bao_endpoint>  (500) 
BAO_0000190

>  <potential_duplicate>  (500) 
False

>  <uo_units>  (500) 
UO_0000065

>  <canonical_smiles>  (500) 
CN(c1ccc(cc1)[N+](=O)[O-])c2cnc3nc(N)nc(N)c3c2

>  <parent_molecule_chembl_id>  (500) 
CHEMBL2382333

>  <assay_type>  (500) 
B

>  <src_id>  (500) 
1

>  <ligand_efficiency>  (500) 
{u'le': u'0.38', u'bei': u'20.78', u'sei': u'4.63', u'lle': u'4.82'}

>  <standard_flag>  (500) 
True

>  <molecule_chembl_id>  (500) 
CHEMBL2382333

>  <target_organism>  (500) 
Homo sapiens

>  <standard_units>  (500) 
nM

>  <record_id>  (500) 
1895095

>  <document_chembl_id>  (500) 
CHEMBL2380288

>  <bao_format>  (500) 
BAO_0000357

>  <data_validity_description>  (500) 
None

>  <activity_id>  (500) 
13297388

>  <standard_type>  (500) 
IC50

>  <target_chembl_id>  (500) 
CHEMBL202

>  <data_validity_comment>  (500) 
None

>  <published_value>  (500) 
0.34

>  <document_year>  (500) 
2013

>  <target_pref_name>  (500) 
Dihydrofolate reductase

>  <assay_chembl_id>  (500) 
CHEMBL2384165

>  <standard_relation>  (500) 
=

>  <assay_description>  (500) 
Inhibition of human recombinant DHFR

>  <published_relation>  (500) 
=

>  <standard_value>  (500) 
340

>  <qudt_units>  (500) 
http://www.openphacts.org/units/Nanomolar

>  <target_tax_id>  (500) 
9606

>  <bao_label>  (500) 
single protein format

>  <published_units>  (500) 
uM

>  <pchembl_value>  (500) 
6.47

>  <published_type>  (500) 
IC50

>  <activity_comment>  (500) 
None

$$$$

     RDKit          

 23 25  0  0  0  0  0  0  0  0999 V2000
    0.0000    0.0000    0.0000 C   0  0  0  0  0  0  0  0  0  0  0  0
    0.0000    0.0000    0.0000 C   0  0  0  0  0  0  0  0  0  0  0  0
    0.0000    0.0000    0.0000 C   0  0  0  0  0  0  0  0  0  0  0  0
    0.0000    0.0000    0.0000 C   0  0  0  0  0  0  0  0  0  0  0  0
    0.0000    0.0000    0.0000 C   0  0  0  0  0  0  0  0  0  0  0  0
    0.0000    0.0000    0.0000 C   0  0  0  0  0  0  0  0  0  0  0  0
    0.0000    0.0000    0.0000 C   0  0  0  0  0  0  0  0  0  0  0  0
    0.0000    0.0000    0.0000 C   0  0  0  0  0  0  0  0  0  0  0  0
    0.0000    0.0000    0.0000 C   0  0  0  0  0  0  0  0  0  0  0  0
    0.0000    0.0000    0.0000 N   0  0  0  0  0  0  0  0  0  0  0  0
    0.0000    0.0000    0.0000 C   0  0  0  0  0  0  0  0  0  0  0  0
    0.0000    0.0000    0.0000 C   0  0  0  0  0  0  0  0  0  0  0  0
    0.0000    0.0000    0.0000 C   0  0  0  0  0  0  0  0  0  0  0  0
    0.0000    0.0000    0.0000 N   0  0  0  0  0  0  0  0  0  0  0  0
    0.0000    0.0000    0.0000 C   0  0  0  0  0  0  0  0  0  0  0  0
    0.0000    0.0000    0.0000 N   0  0  0  0  0  0  0  0  0  0  0  0
    0.0000    0.0000    0.0000 C   0  0  0  0  0  0  0  0  0  0  0  0
    0.0000    0.0000    0.0000 N   0  0  0  0  0  0  0  0  0  0  0  0
    0.0000    0.0000    0.0000 N   0  0  0  0  0  0  0  0  0  0  0  0
    0.0000    0.0000    0.0000 C   0  0  0  0  0  0  0  0  0  0  0  0
    0.0000    0.0000    0.0000 N   0  0  0  0  0  0  0  0  0  0  0  0
    0.0000    0.0000    0.0000 C   0  0  0  0  0  0  0  0  0  0  0  0
    0.0000    0.0000    0.0000 C   0  0  0  0  0  0  0  0  0  0  0  0
  1  2  1  0
  2  3  1  0
  2  4  1  0
  4  5  2  0
  5  6  1  0
  6  7  2  0
  7  8  1  0
  8  9  2  0
  7 10  1  0
 10 11  1  0
 10 12  1  0
 12 13  2  0
 13 14  1  0
 14 15  2  0
 15 16  1  0
 16 17  2  0
 17 18  1  0
 17 19  1  0
 19 20  2  0
 20 21  1  0
 20 22  1  0
 22 23  2  0
  9  4  1  0
 23 12  1  0
 22 15  1  0
M  END
>  <pIC50>  (501) 
7.28

>  <ChEMBL_ID>  (501) 
CHEMBL2382332

>  <document_journal>  (501) 
J. Med. Chem.

>  <bao_endpoint>  (501) 
BAO_0000190

>  <potential_duplicate>  (501) 
False

>  <uo_units>  (501) 
UO_0000065

>  <canonical_smiles>  (501) 
CC(C)c1ccc(cc1)N(C)c2cnc3nc(N)nc(N)c3c2

>  <parent_molecule_chembl_id>  (501) 
CHEMBL2382332

>  <assay_type>  (501) 
B

>  <src_id>  (501) 
1

>  <ligand_efficiency>  (501) 
{u'le': u'0.43', u'bei': u'23.62', u'sei': u'7.75', u'lle': u'4.33'}

>  <standard_flag>  (501) 
True

>  <molecule_chembl_id>  (501) 
CHEMBL2382332

>  <target_organism>  (501) 
Homo sapiens

>  <standard_units>  (501) 
nM

>  <record_id>  (501) 
1895094

>  <document_chembl_id>  (501) 
CHEMBL2380288

>  <bao_format>  (501) 
BAO_0000357

>  <data_validity_description>  (501) 
None

>  <activity_id>  (501) 
13297389

>  <standard_type>  (501) 
IC50

>  <target_chembl_id>  (501) 
CHEMBL202

>  <data_validity_comment>  (501) 
None

>  <published_value>  (501) 
0.052

>  <document_year>  (501) 
2013

>  <target_pref_name>  (501) 
Dihydrofolate reductase

>  <assay_chembl_id>  (501) 
CHEMBL2384165

>  <standard_relation>  (501) 
=

>  <assay_description>  (501) 
Inhibition of human recombinant DHFR

>  <published_relation>  (501) 
=

>  <standard_value>  (501) 
52

>  <qudt_units>  (501) 
http://www.openphacts.org/units/Nanomolar

>  <target_tax_id>  (501) 
9606

>  <bao_label>  (501) 
single protein format

>  <published_units>  (501) 
uM

>  <pchembl_value>  (501) 
7.28

>  <published_type>  (501) 
IC50

>  <activity_comment>  (501) 
None

$$$$

     RDKit          

 21 23  0  0  0  0  0  0  0  0999 V2000
    0.0000    0.0000    0.0000 C   0  0  0  0  0  0  0  0  0  0  0  0
    0.0000    0.0000    0.0000 N   0  0  0  0  0  0  0  0  0  0  0  0
    0.0000    0.0000    0.0000 C   0  0  0  0  0  0  0  0  0  0  0  0
    0.0000    0.0000    0.0000 C   0  0  0  0  0  0  0  0  0  0  0  0
    0.0000    0.0000    0.0000 C   0  0  0  0  0  0  0  0  0  0  0  0
    0.0000    0.0000    0.0000 C   0  0  0  0  0  0  0  0  0  0  0  0
    0.0000    0.0000    0.0000 C   0  0  0  0  0  0  0  0  0  0  0  0
    0.0000    0.0000    0.0000 C   0  0  0  0  0  0  0  0  0  0  0  0
    0.0000    0.0000    0.0000 C   0  0  0  0  0  0  0  0  0  0  0  0
    0.0000    0.0000    0.0000 C   0  0  0  0  0  0  0  0  0  0  0  0
    0.0000    0.0000    0.0000 C   0  0  0  0  0  0  0  0  0  0  0  0
    0.0000    0.0000    0.0000 N   0  0  0  0  0  0  0  0  0  0  0  0
    0.0000    0.0000    0.0000 C   0  0  0  0  0  0  0  0  0  0  0  0
    0.0000    0.0000    0.0000 N   0  0  0  0  0  0  0  0  0  0  0  0
    0.0000    0.0000    0.0000 C   0  0  0  0  0  0  0  0  0  0  0  0
    0.0000    0.0000    0.0000 N   0  0  0  0  0  0  0  0  0  0  0  0
    0.0000    0.0000    0.0000 N   0  0  0  0  0  0  0  0  0  0  0  0
    0.0000    0.0000    0.0000 C   0  0  0  0  0  0  0  0  0  0  0  0
    0.0000    0.0000    0.0000 N   0  0  0  0  0  0  0  0  0  0  0  0
    0.0000    0.0000    0.0000 C   0  0  0  0  0  0  0  0  0  0  0  0
    0.0000    0.0000    0.0000 C   0  0  0  0  0  0  0  0  0  0  0  0
  1  2  1  0
  2  3  1  0
  3  4  2  0
  4  5  1  0
  5  6  2  0
  6  7  1  0
  6  8  1  0
  8  9  2  0
  2 10  1  0
 10 11  2  0
 11 12  1  0
 12 13  2  0
 13 14  1  0
 14 15  2  0
 15 16  1  0
 15 17  1  0
 17 18  2  0
 18 19  1  0
 18 20  1  0
 20 21  2  0
  9  3  1  0
 21 10  1  0
 20 13  1  0
M  END
>  <pIC50>  (502) 
7.5

>  <ChEMBL_ID>  (502) 
CHEMBL2382331

>  <document_journal>  (502) 
J. Med. Chem.

>  <bao_endpoint>  (502) 
BAO_0000190

>  <potential_duplicate>  (502) 
False

>  <uo_units>  (502) 
UO_0000065

>  <canonical_smiles>  (502) 
CN(c1ccc(C)cc1)c2cnc3nc(N)nc(N)c3c2

>  <parent_molecule_chembl_id>  (502) 
CHEMBL2382331

>  <assay_type>  (502) 
B

>  <src_id>  (502) 
1

>  <ligand_efficiency>  (502) 
{u'le': u'0.49', u'bei': u'26.74', u'sei': u'7.98', u'lle': u'5.25'}

>  <standard_flag>  (502) 
True

>  <molecule_chembl_id>  (502) 
CHEMBL2382331

>  <target_organism>  (502) 
Homo sapiens

>  <standard_units>  (502) 
nM

>  <record_id>  (502) 
1895093

>  <document_chembl_id>  (502) 
CHEMBL2380288

>  <bao_format>  (502) 
BAO_0000357

>  <data_validity_description>  (502) 
None

>  <activity_id>  (502) 
13297390

>  <standard_type>  (502) 
IC50

>  <target_chembl_id>  (502) 
CHEMBL202

>  <data_validity_comment>  (502) 
None

>  <published_value>  (502) 
0.032

>  <document_year>  (502) 
2013

>  <target_pref_name>  (502) 
Dihydrofolate reductase

>  <assay_chembl_id>  (502) 
CHEMBL2384165

>  <standard_relation>  (502) 
=

>  <assay_description>  (502) 
Inhibition of human recombinant DHFR

>  <published_relation>  (502) 
=

>  <standard_value>  (502) 
32

>  <qudt_units>  (502) 
http://www.openphacts.org/units/Nanomolar

>  <target_tax_id>  (502) 
9606

>  <bao_label>  (502) 
single protein format

>  <published_units>  (502) 
uM

>  <pchembl_value>  (502) 
7.5

>  <published_type>  (502) 
IC50

>  <activity_comment>  (502) 
None

$$$$

     RDKit          

 26 28  0  0  0  0  0  0  0  0999 V2000
    0.0000    0.0000    0.0000 C   0  0  0  0  0  0  0  0  0  0  0  0
    0.0000    0.0000    0.0000 O   0  0  0  0  0  0  0  0  0  0  0  0
    0.0000    0.0000    0.0000 C   0  0  0  0  0  0  0  0  0  0  0  0
    0.0000    0.0000    0.0000 C   0  0  0  0  0  0  0  0  0  0  0  0
    0.0000    0.0000    0.0000 C   0  0  0  0  0  0  0  0  0  0  0  0
    0.0000    0.0000    0.0000 C   0  0  0  0  0  0  0  0  0  0  0  0
    0.0000    0.0000    0.0000 C   0  0  0  0  0  0  0  0  0  0  0  0
    0.0000    0.0000    0.0000 O   0  0  0  0  0  0  0  0  0  0  0  0
    0.0000    0.0000    0.0000 C   0  0  0  0  0  0  0  0  0  0  0  0
    0.0000    0.0000    0.0000 C   0  0  0  0  0  0  0  0  0  0  0  0
    0.0000    0.0000    0.0000 O   0  0  0  0  0  0  0  0  0  0  0  0
    0.0000    0.0000    0.0000 C   0  0  0  0  0  0  0  0  0  0  0  0
    0.0000    0.0000    0.0000 N   0  0  0  0  0  0  0  0  0  0  0  0
    0.0000    0.0000    0.0000 C   0  0  0  0  0  0  0  0  0  0  0  0
    0.0000    0.0000    0.0000 C   0  0  0  0  0  0  0  0  0  0  0  0
    0.0000    0.0000    0.0000 C   0  0  0  0  0  0  0  0  0  0  0  0
    0.0000    0.0000    0.0000 N   0  0  0  0  0  0  0  0  0  0  0  0
    0.0000    0.0000    0.0000 C   0  0  0  0  0  0  0  0  0  0  0  0
    0.0000    0.0000    0.0000 N   0  0  0  0  0  0  0  0  0  0  0  0
    0.0000    0.0000    0.0000 C   0  0  0  0  0  0  0  0  0  0  0  0
    0.0000    0.0000    0.0000 N   0  0  0  0  0  0  0  0  0  0  0  0
    0.0000    0.0000    0.0000 N   0  0  0  0  0  0  0  0  0  0  0  0
    0.0000    0.0000    0.0000 C   0  0  0  0  0  0  0  0  0  0  0  0
    0.0000    0.0000    0.0000 N   0  0  0  0  0  0  0  0  0  0  0  0
    0.0000    0.0000    0.0000 C   0  0  0  0  0  0  0  0  0  0  0  0
    0.0000    0.0000    0.0000 C   0  0  0  0  0  0  0  0  0  0  0  0
  1  2  1  0
  2  3  1  0
  3  4  2  0
  4  5  1  0
  5  6  2  0
  6  7  1  0
  7  8  1  0
  8  9  1  0
  7 10  2  0
 10 11  1  0
 11 12  1  0
  5 13  1  0
 13 14  1  0
 13 15  1  0
 15 16  2  0
 16 17  1  0
 17 18  2  0
 18 19  1  0
 19 20  2  0
 20 21  1  0
 20 22  1  0
 22 23  2  0
 23 24  1  0
 23 25  1  0
 25 26  2  0
 10  3  1  0
 26 15  1  0
 25 18  1  0
M  END
>  <pIC50>  (503) 
8.34

>  <ChEMBL_ID>  (503) 
CHEMBL2382330

>  <document_journal>  (503) 
J. Med. Chem.

>  <bao_endpoint>  (503) 
BAO_0000190

>  <potential_duplicate>  (503) 
False

>  <uo_units>  (503) 
UO_0000065

>  <canonical_smiles>  (503) 
COc1cc(cc(OC)c1OC)N(C)c2cnc3nc(N)nc(N)c3c2

>  <parent_molecule_chembl_id>  (503) 
CHEMBL2382330

>  <assay_type>  (503) 
B

>  <src_id>  (503) 
1

>  <ligand_efficiency>  (503) 
{u'le': u'0.44', u'bei': u'23.39', u'sei': u'6.85', u'lle': u'6.63'}

>  <standard_flag>  (503) 
True

>  <molecule_chembl_id>  (503) 
CHEMBL2382330

>  <target_organism>  (503) 
Homo sapiens

>  <standard_units>  (503) 
nM

>  <record_id>  (503) 
1895092

>  <document_chembl_id>  (503) 
CHEMBL2380288

>  <bao_format>  (503) 
BAO_0000357

>  <data_validity_description>  (503) 
None

>  <activity_id>  (503) 
13297391

>  <standard_type>  (503) 
IC50

>  <target_chembl_id>  (503) 
CHEMBL202

>  <data_validity_comment>  (503) 
None

>  <published_value>  (503) 
0.0046

>  <document_year>  (503) 
2013

>  <target_pref_name>  (503) 
Dihydrofolate reductase

>  <assay_chembl_id>  (503) 
CHEMBL2384165

>  <standard_relation>  (503) 
=

>  <assay_description>  (503) 
Inhibition of human recombinant DHFR

>  <published_relation>  (503) 
=

>  <standard_value>  (503) 
4.6

>  <qudt_units>  (503) 
http://www.openphacts.org/units/Nanomolar

>  <target_tax_id>  (503) 
9606

>  <bao_label>  (503) 
single protein format

>  <published_units>  (503) 
uM

>  <pchembl_value>  (503) 
8.34

>  <published_type>  (503) 
IC50

>  <activity_comment>  (503) 
None

$$$$

     RDKit          

 24 26  0  0  0  0  0  0  0  0999 V2000
    0.0000    0.0000    0.0000 C   0  0  0  0  0  0  0  0  0  0  0  0
    0.0000    0.0000    0.0000 O   0  0  0  0  0  0  0  0  0  0  0  0
    0.0000    0.0000    0.0000 C   0  0  0  0  0  0  0  0  0  0  0  0
    0.0000    0.0000    0.0000 C   0  0  0  0  0  0  0  0  0  0  0  0
    0.0000    0.0000    0.0000 C   0  0  0  0  0  0  0  0  0  0  0  0
    0.0000    0.0000    0.0000 C   0  0  0  0  0  0  0  0  0  0  0  0
    0.0000    0.0000    0.0000 O   0  0  0  0  0  0  0  0  0  0  0  0
    0.0000    0.0000    0.0000 C   0  0  0  0  0  0  0  0  0  0  0  0
    0.0000    0.0000    0.0000 C   0  0  0  0  0  0  0  0  0  0  0  0
    0.0000    0.0000    0.0000 C   0  0  0  0  0  0  0  0  0  0  0  0
    0.0000    0.0000    0.0000 N   0  0  0  0  0  0  0  0  0  0  0  0
    0.0000    0.0000    0.0000 C   0  0  0  0  0  0  0  0  0  0  0  0
    0.0000    0.0000    0.0000 C   0  0  0  0  0  0  0  0  0  0  0  0
    0.0000    0.0000    0.0000 C   0  0  0  0  0  0  0  0  0  0  0  0
    0.0000    0.0000    0.0000 N   0  0  0  0  0  0  0  0  0  0  0  0
    0.0000    0.0000    0.0000 C   0  0  0  0  0  0  0  0  0  0  0  0
    0.0000    0.0000    0.0000 N   0  0  0  0  0  0  0  0  0  0  0  0
    0.0000    0.0000    0.0000 C   0  0  0  0  0  0  0  0  0  0  0  0
    0.0000    0.0000    0.0000 N   0  0  0  0  0  0  0  0  0  0  0  0
    0.0000    0.0000    0.0000 N   0  0  0  0  0  0  0  0  0  0  0  0
    0.0000    0.0000    0.0000 C   0  0  0  0  0  0  0  0  0  0  0  0
    0.0000    0.0000    0.0000 N   0  0  0  0  0  0  0  0  0  0  0  0
    0.0000    0.0000    0.0000 C   0  0  0  0  0  0  0  0  0  0  0  0
    0.0000    0.0000    0.0000 C   0  0  0  0  0  0  0  0  0  0  0  0
  1  2  1  0
  2  3  1  0
  3  4  2  0
  4  5  1  0
  5  6  2  0
  6  7  1  0
  7  8  1  0
  6  9  1  0
  9 10  2  0
  9 11  1  0
 11 12  1  0
 11 13  1  0
 13 14  2  0
 14 15  1  0
 15 16  2  0
 16 17  1  0
 17 18  2  0
 18 19  1  0
 18 20  1  0
 20 21  2  0
 21 22  1  0
 21 23  1  0
 23 24  2  0
 10  3  1  0
 24 13  1  0
 23 16  1  0
M  END
>  <pIC50>  (504) 
8.33

>  <ChEMBL_ID>  (504) 
CHEMBL2382329

>  <document_journal>  (504) 
J. Med. Chem.

>  <bao_endpoint>  (504) 
BAO_0000190

>  <potential_duplicate>  (504) 
False

>  <uo_units>  (504) 
UO_0000065

>  <canonical_smiles>  (504) 
COc1ccc(OC)c(c1)N(C)c2cnc3nc(N)nc(N)c3c2

>  <parent_molecule_chembl_id>  (504) 
CHEMBL2382329

>  <assay_type>  (504) 
B

>  <src_id>  (504) 
1

>  <ligand_efficiency>  (504) 
{u'le': u'0.47', u'bei': u'25.52', u'sei': u'7.41', u'lle': u'6.61'}

>  <standard_flag>  (504) 
True

>  <molecule_chembl_id>  (504) 
CHEMBL2382329

>  <target_organism>  (504) 
Homo sapiens

>  <standard_units>  (504) 
nM

>  <record_id>  (504) 
1895091

>  <document_chembl_id>  (504) 
CHEMBL2380288

>  <bao_format>  (504) 
BAO_0000357

>  <data_validity_description>  (504) 
None

>  <activity_id>  (504) 
13297392

>  <standard_type>  (504) 
IC50

>  <target_chembl_id>  (504) 
CHEMBL202

>  <data_validity_comment>  (504) 
None

>  <published_value>  (504) 
0.0047

>  <document_year>  (504) 
2013

>  <target_pref_name>  (504) 
Dihydrofolate reductase

>  <assay_chembl_id>  (504) 
CHEMBL2384165

>  <standard_relation>  (504) 
=

>  <assay_description>  (504) 
Inhibition of human recombinant DHFR

>  <published_relation>  (504) 
=

>  <standard_value>  (504) 
4.7

>  <qudt_units>  (504) 
http://www.openphacts.org/units/Nanomolar

>  <target_tax_id>  (504) 
9606

>  <bao_label>  (504) 
single protein format

>  <published_units>  (504) 
uM

>  <pchembl_value>  (504) 
8.33

>  <published_type>  (504) 
IC50

>  <activity_comment>  (504) 
None

$$$$

     RDKit          

 22 24  0  0  0  0  0  0  0  0999 V2000
    0.0000    0.0000    0.0000 C   0  0  0  0  0  0  0  0  0  0  0  0
    0.0000    0.0000    0.0000 O   0  0  0  0  0  0  0  0  0  0  0  0
    0.0000    0.0000    0.0000 C   0  0  0  0  0  0  0  0  0  0  0  0
    0.0000    0.0000    0.0000 C   0  0  0  0  0  0  0  0  0  0  0  0
    0.0000    0.0000    0.0000 C   0  0  0  0  0  0  0  0  0  0  0  0
    0.0000    0.0000    0.0000 C   0  0  0  0  0  0  0  0  0  0  0  0
    0.0000    0.0000    0.0000 C   0  0  0  0  0  0  0  0  0  0  0  0
    0.0000    0.0000    0.0000 C   0  0  0  0  0  0  0  0  0  0  0  0
    0.0000    0.0000    0.0000 N   0  0  0  0  0  0  0  0  0  0  0  0
    0.0000    0.0000    0.0000 C   0  0  0  0  0  0  0  0  0  0  0  0
    0.0000    0.0000    0.0000 C   0  0  0  0  0  0  0  0  0  0  0  0
    0.0000    0.0000    0.0000 C   0  0  0  0  0  0  0  0  0  0  0  0
    0.0000    0.0000    0.0000 N   0  0  0  0  0  0  0  0  0  0  0  0
    0.0000    0.0000    0.0000 C   0  0  0  0  0  0  0  0  0  0  0  0
    0.0000    0.0000    0.0000 N   0  0  0  0  0  0  0  0  0  0  0  0
    0.0000    0.0000    0.0000 C   0  0  0  0  0  0  0  0  0  0  0  0
    0.0000    0.0000    0.0000 N   0  0  0  0  0  0  0  0  0  0  0  0
    0.0000    0.0000    0.0000 N   0  0  0  0  0  0  0  0  0  0  0  0
    0.0000    0.0000    0.0000 C   0  0  0  0  0  0  0  0  0  0  0  0
    0.0000    0.0000    0.0000 N   0  0  0  0  0  0  0  0  0  0  0  0
    0.0000    0.0000    0.0000 C   0  0  0  0  0  0  0  0  0  0  0  0
    0.0000    0.0000    0.0000 C   0  0  0  0  0  0  0  0  0  0  0  0
  1  2  1  0
  2  3  1  0
  3  4  2  0
  4  5  1  0
  5  6  2  0
  6  7  1  0
  7  8  2  0
  8  9  1  0
  9 10  1  0
  9 11  1  0
 11 12  2  0
 12 13  1  0
 13 14  2  0
 14 15  1  0
 15 16  2  0
 16 17  1  0
 16 18  1  0
 18 19  2  0
 19 20  1  0
 19 21  1  0
 21 22  2  0
  8  3  1  0
 22 11  1  0
 21 14  1  0
M  END
>  <pIC50>  (505) 
7.85

>  <ChEMBL_ID>  (505) 
CHEMBL2382328

>  <document_journal>  (505) 
J. Med. Chem.

>  <bao_endpoint>  (505) 
BAO_0000190

>  <potential_duplicate>  (505) 
False

>  <uo_units>  (505) 
UO_0000065

>  <canonical_smiles>  (505) 
COc1ccccc1N(C)c2cnc3nc(N)nc(N)c3c2

>  <parent_molecule_chembl_id>  (505) 
CHEMBL2382328

>  <assay_type>  (505) 
B

>  <src_id>  (505) 
1

>  <ligand_efficiency>  (505) 
{u'le': u'0.49', u'bei': u'26.5', u'sei': u'7.61', u'lle': u'6.11'}

>  <standard_flag>  (505) 
True

>  <molecule_chembl_id>  (505) 
CHEMBL2382328

>  <target_organism>  (505) 
Homo sapiens

>  <standard_units>  (505) 
nM

>  <record_id>  (505) 
1895090

>  <document_chembl_id>  (505) 
CHEMBL2380288

>  <bao_format>  (505) 
BAO_0000357

>  <data_validity_description>  (505) 
None

>  <activity_id>  (505) 
13297393

>  <standard_type>  (505) 
IC50

>  <target_chembl_id>  (505) 
CHEMBL202

>  <data_validity_comment>  (505) 
None

>  <published_value>  (505) 
0.014

>  <document_year>  (505) 
2013

>  <target_pref_name>  (505) 
Dihydrofolate reductase

>  <assay_chembl_id>  (505) 
CHEMBL2384165

>  <standard_relation>  (505) 
=

>  <assay_description>  (505) 
Inhibition of human recombinant DHFR

>  <published_relation>  (505) 
=

>  <standard_value>  (505) 
14

>  <qudt_units>  (505) 
http://www.openphacts.org/units/Nanomolar

>  <target_tax_id>  (505) 
9606

>  <bao_label>  (505) 
single protein format

>  <published_units>  (505) 
uM

>  <pchembl_value>  (505) 
7.85

>  <published_type>  (505) 
IC50

>  <activity_comment>  (505) 
None

$$$$

     RDKit          

 22 24  0  0  0  0  0  0  0  0999 V2000
    0.0000    0.0000    0.0000 C   0  0  0  0  0  0  0  0  0  0  0  0
    0.0000    0.0000    0.0000 O   0  0  0  0  0  0  0  0  0  0  0  0
    0.0000    0.0000    0.0000 C   0  0  0  0  0  0  0  0  0  0  0  0
    0.0000    0.0000    0.0000 C   0  0  0  0  0  0  0  0  0  0  0  0
    0.0000    0.0000    0.0000 C   0  0  0  0  0  0  0  0  0  0  0  0
    0.0000    0.0000    0.0000 C   0  0  0  0  0  0  0  0  0  0  0  0
    0.0000    0.0000    0.0000 C   0  0  0  0  0  0  0  0  0  0  0  0
    0.0000    0.0000    0.0000 C   0  0  0  0  0  0  0  0  0  0  0  0
    0.0000    0.0000    0.0000 N   0  0  0  0  0  0  0  0  0  0  0  0
    0.0000    0.0000    0.0000 C   0  0  0  0  0  0  0  0  0  0  0  0
    0.0000    0.0000    0.0000 C   0  0  0  0  0  0  0  0  0  0  0  0
    0.0000    0.0000    0.0000 C   0  0  0  0  0  0  0  0  0  0  0  0
    0.0000    0.0000    0.0000 N   0  0  0  0  0  0  0  0  0  0  0  0
    0.0000    0.0000    0.0000 C   0  0  0  0  0  0  0  0  0  0  0  0
    0.0000    0.0000    0.0000 N   0  0  0  0  0  0  0  0  0  0  0  0
    0.0000    0.0000    0.0000 C   0  0  0  0  0  0  0  0  0  0  0  0
    0.0000    0.0000    0.0000 N   0  0  0  0  0  0  0  0  0  0  0  0
    0.0000    0.0000    0.0000 N   0  0  0  0  0  0  0  0  0  0  0  0
    0.0000    0.0000    0.0000 C   0  0  0  0  0  0  0  0  0  0  0  0
    0.0000    0.0000    0.0000 N   0  0  0  0  0  0  0  0  0  0  0  0
    0.0000    0.0000    0.0000 C   0  0  0  0  0  0  0  0  0  0  0  0
    0.0000    0.0000    0.0000 C   0  0  0  0  0  0  0  0  0  0  0  0
  1  2  1  0
  2  3  1  0
  3  4  2  0
  4  5  1  0
  5  6  2  0
  6  7  1  0
  7  8  2  0
  6  9  1  0
  9 10  1  0
  9 11  1  0
 11 12  2  0
 12 13  1  0
 13 14  2  0
 14 15  1  0
 15 16  2  0
 16 17  1  0
 16 18  1  0
 18 19  2  0
 19 20  1  0
 19 21  1  0
 21 22  2  0
  8  3  1  0
 22 11  1  0
 21 14  1  0
M  END
>  <pIC50>  (506) 
7.92

>  <ChEMBL_ID>  (506) 
CHEMBL2382327

>  <document_journal>  (506) 
J. Med. Chem.

>  <bao_endpoint>  (506) 
BAO_0000190

>  <potential_duplicate>  (506) 
False

>  <uo_units>  (506) 
UO_0000065

>  <canonical_smiles>  (506) 
COc1ccc(cc1)N(C)c2cnc3nc(N)nc(N)c3c2

>  <parent_molecule_chembl_id>  (506) 
CHEMBL2382327

>  <assay_type>  (506) 
B

>  <src_id>  (506) 
1

>  <ligand_efficiency>  (506) 
{u'le': u'0.49', u'bei': u'26.73', u'sei': u'7.68', u'lle': u'6.18'}

>  <standard_flag>  (506) 
True

>  <molecule_chembl_id>  (506) 
CHEMBL2382327

>  <target_organism>  (506) 
Homo sapiens

>  <standard_units>  (506) 
nM

>  <record_id>  (506) 
1895089

>  <document_chembl_id>  (506) 
CHEMBL2380288

>  <bao_format>  (506) 
BAO_0000357

>  <data_validity_description>  (506) 
None

>  <activity_id>  (506) 
13297394

>  <standard_type>  (506) 
IC50

>  <target_chembl_id>  (506) 
CHEMBL202

>  <data_validity_comment>  (506) 
None

>  <published_value>  (506) 
0.012

>  <document_year>  (506) 
2013

>  <target_pref_name>  (506) 
Dihydrofolate reductase

>  <assay_chembl_id>  (506) 
CHEMBL2384165

>  <standard_relation>  (506) 
=

>  <assay_description>  (506) 
Inhibition of human recombinant DHFR

>  <published_relation>  (506) 
=

>  <standard_value>  (506) 
12

>  <qudt_units>  (506) 
http://www.openphacts.org/units/Nanomolar

>  <target_tax_id>  (506) 
9606

>  <bao_label>  (506) 
single protein format

>  <published_units>  (506) 
uM

>  <pchembl_value>  (506) 
7.92

>  <published_type>  (506) 
IC50

>  <activity_comment>  (506) 
None

$$$$

     RDKit          

 20 22  0  0  0  0  0  0  0  0999 V2000
    0.0000    0.0000    0.0000 C   0  0  0  0  0  0  0  0  0  0  0  0
    0.0000    0.0000    0.0000 N   0  0  0  0  0  0  0  0  0  0  0  0
    0.0000    0.0000    0.0000 C   0  0  0  0  0  0  0  0  0  0  0  0
    0.0000    0.0000    0.0000 C   0  0  0  0  0  0  0  0  0  0  0  0
    0.0000    0.0000    0.0000 C   0  0  0  0  0  0  0  0  0  0  0  0
    0.0000    0.0000    0.0000 C   0  0  0  0  0  0  0  0  0  0  0  0
    0.0000    0.0000    0.0000 C   0  0  0  0  0  0  0  0  0  0  0  0
    0.0000    0.0000    0.0000 C   0  0  0  0  0  0  0  0  0  0  0  0
    0.0000    0.0000    0.0000 C   0  0  0  0  0  0  0  0  0  0  0  0
    0.0000    0.0000    0.0000 C   0  0  0  0  0  0  0  0  0  0  0  0
    0.0000    0.0000    0.0000 N   0  0  0  0  0  0  0  0  0  0  0  0
    0.0000    0.0000    0.0000 C   0  0  0  0  0  0  0  0  0  0  0  0
    0.0000    0.0000    0.0000 N   0  0  0  0  0  0  0  0  0  0  0  0
    0.0000    0.0000    0.0000 C   0  0  0  0  0  0  0  0  0  0  0  0
    0.0000    0.0000    0.0000 N   0  0  0  0  0  0  0  0  0  0  0  0
    0.0000    0.0000    0.0000 N   0  0  0  0  0  0  0  0  0  0  0  0
    0.0000    0.0000    0.0000 C   0  0  0  0  0  0  0  0  0  0  0  0
    0.0000    0.0000    0.0000 N   0  0  0  0  0  0  0  0  0  0  0  0
    0.0000    0.0000    0.0000 C   0  0  0  0  0  0  0  0  0  0  0  0
    0.0000    0.0000    0.0000 C   0  0  0  0  0  0  0  0  0  0  0  0
  1  2  1  0
  2  3  1  0
  3  4  2  0
  4  5  1  0
  5  6  2  0
  6  7  1  0
  7  8  2  0
  2  9  1  0
  9 10  2  0
 10 11  1  0
 11 12  2  0
 12 13  1  0
 13 14  2  0
 14 15  1  0
 14 16  1  0
 16 17  2  0
 17 18  1  0
 17 19  1  0
 19 20  2  0
  8  3  1  0
 20  9  1  0
 19 12  1  0
M  END
>  <pIC50>  (507) 
7.24

>  <ChEMBL_ID>  (507) 
CHEMBL2382326

>  <document_journal>  (507) 
J. Med. Chem.

>  <bao_endpoint>  (507) 
BAO_0000190

>  <potential_duplicate>  (507) 
False

>  <uo_units>  (507) 
UO_0000065

>  <canonical_smiles>  (507) 
CN(c1ccccc1)c2cnc3nc(N)nc(N)c3c2

>  <parent_molecule_chembl_id>  (507) 
CHEMBL2382326

>  <assay_type>  (507) 
B

>  <src_id>  (507) 
1

>  <ligand_efficiency>  (507) 
{u'le': u'0.49', u'bei': u'27.2', u'sei': u'7.71', u'lle': u'5.48'}

>  <standard_flag>  (507) 
True

>  <molecule_chembl_id>  (507) 
CHEMBL2382326

>  <target_organism>  (507) 
Homo sapiens

>  <standard_units>  (507) 
nM

>  <record_id>  (507) 
1895088

>  <document_chembl_id>  (507) 
CHEMBL2380288

>  <bao_format>  (507) 
BAO_0000357

>  <data_validity_description>  (507) 
None

>  <activity_id>  (507) 
13297395

>  <standard_type>  (507) 
IC50

>  <target_chembl_id>  (507) 
CHEMBL202

>  <data_validity_comment>  (507) 
None

>  <published_value>  (507) 
0.057

>  <document_year>  (507) 
2013

>  <target_pref_name>  (507) 
Dihydrofolate reductase

>  <assay_chembl_id>  (507) 
CHEMBL2384165

>  <standard_relation>  (507) 
=

>  <assay_description>  (507) 
Inhibition of human recombinant DHFR

>  <published_relation>  (507) 
=

>  <standard_value>  (507) 
57

>  <qudt_units>  (507) 
http://www.openphacts.org/units/Nanomolar

>  <target_tax_id>  (507) 
9606

>  <bao_label>  (507) 
single protein format

>  <published_units>  (507) 
uM

>  <pchembl_value>  (507) 
7.24

>  <published_type>  (507) 
IC50

>  <activity_comment>  (507) 
None

$$$$

     RDKit          

 22 24  0  0  0  0  0  0  0  0999 V2000
    0.0000    0.0000    0.0000 N   0  0  0  0  0  0  0  0  0  0  0  0
    0.0000    0.0000    0.0000 C   0  0  0  0  0  0  0  0  0  0  0  0
    0.0000    0.0000    0.0000 N   0  0  0  0  0  0  0  0  0  0  0  0
    0.0000    0.0000    0.0000 C   0  0  0  0  0  0  0  0  0  0  0  0
    0.0000    0.0000    0.0000 N   0  0  0  0  0  0  0  0  0  0  0  0
    0.0000    0.0000    0.0000 C   0  0  0  0  0  0  0  0  0  0  0  0
    0.0000    0.0000    0.0000 C   0  0  0  0  0  0  0  0  0  0  0  0
    0.0000    0.0000    0.0000 C   0  0  0  0  0  0  0  0  0  0  0  0
    0.0000    0.0000    0.0000 N   0  0  0  0  0  0  0  0  0  0  0  0
    0.0000    0.0000    0.0000 C   0  0  0  0  0  0  0  0  0  0  0  0
    0.0000    0.0000    0.0000 C   0  0  0  0  0  0  0  0  0  0  0  0
    0.0000    0.0000    0.0000 C   0  0  0  0  0  0  0  0  0  0  0  0
    0.0000    0.0000    0.0000 F   0  0  0  0  0  0  0  0  0  0  0  0
    0.0000    0.0000    0.0000 C   0  0  0  0  0  0  0  0  0  0  0  0
    0.0000    0.0000    0.0000 F   0  0  0  0  0  0  0  0  0  0  0  0
    0.0000    0.0000    0.0000 C   0  0  0  0  0  0  0  0  0  0  0  0
    0.0000    0.0000    0.0000 F   0  0  0  0  0  0  0  0  0  0  0  0
    0.0000    0.0000    0.0000 C   0  0  0  0  0  0  0  0  0  0  0  0
    0.0000    0.0000    0.0000 C   0  0  0  0  0  0  0  0  0  0  0  0
    0.0000    0.0000    0.0000 N   0  0  0  0  0  0  0  0  0  0  0  0
    0.0000    0.0000    0.0000 C   0  0  0  0  0  0  0  0  0  0  0  0
    0.0000    0.0000    0.0000 N   0  0  0  0  0  0  0  0  0  0  0  0
  1  2  1  0
  2  3  2  0
  3  4  1  0
  4  5  1  0
  4  6  2  0
  6  7  1  0
  7  8  2  0
  8  9  1  0
  9 10  1  0
 10 11  2  0
 11 12  1  0
 12 13  1  0
 12 14  2  0
 14 15  1  0
 14 16  1  0
 16 17  1  0
 16 18  2  0
  8 19  1  0
 19 20  2  0
 20 21  1  0
 21 22  2  0
 22  2  1  0
 21  6  1  0
 18 10  1  0
M  END
>  <pIC50>  (508) 
5.51

>  <ChEMBL_ID>  (508) 
CHEMBL2382325

>  <document_journal>  (508) 
J. Med. Chem.

>  <bao_endpoint>  (508) 
BAO_0000190

>  <potential_duplicate>  (508) 
False

>  <uo_units>  (508) 
UO_0000065

>  <canonical_smiles>  (508) 
Nc1nc(N)c2cc(Nc3cc(F)c(F)c(F)c3)cnc2n1

>  <parent_molecule_chembl_id>  (508) 
CHEMBL2382325

>  <assay_type>  (508) 
B

>  <src_id>  (508) 
1

>  <ligand_efficiency>  (508) 
{u'le': u'0.34', u'bei': u'17.99', u'sei': u'5.36', u'lle': u'3.34'}

>  <standard_flag>  (508) 
True

>  <molecule_chembl_id>  (508) 
CHEMBL2382325

>  <target_organism>  (508) 
Homo sapiens

>  <standard_units>  (508) 
nM

>  <record_id>  (508) 
1895087

>  <document_chembl_id>  (508) 
CHEMBL2380288

>  <bao_format>  (508) 
BAO_0000357

>  <data_validity_description>  (508) 
None

>  <activity_id>  (508) 
13297396

>  <standard_type>  (508) 
IC50

>  <target_chembl_id>  (508) 
CHEMBL202

>  <data_validity_comment>  (508) 
None

>  <published_value>  (508) 
3.1

>  <document_year>  (508) 
2013

>  <target_pref_name>  (508) 
Dihydrofolate reductase

>  <assay_chembl_id>  (508) 
CHEMBL2384165

>  <standard_relation>  (508) 
=

>  <assay_description>  (508) 
Inhibition of human recombinant DHFR

>  <published_relation>  (508) 
=

>  <standard_value>  (508) 
3100

>  <qudt_units>  (508) 
http://www.openphacts.org/units/Nanomolar

>  <target_tax_id>  (508) 
9606

>  <bao_label>  (508) 
single protein format

>  <published_units>  (508) 
uM

>  <pchembl_value>  (508) 
5.51

>  <published_type>  (508) 
IC50

>  <activity_comment>  (508) 
None

$$$$

     RDKit          

 21 23  0  0  0  0  0  0  0  0999 V2000
    0.0000    0.0000    0.0000 N   0  0  0  0  0  0  0  0  0  0  0  0
    0.0000    0.0000    0.0000 C   0  0  0  0  0  0  0  0  0  0  0  0
    0.0000    0.0000    0.0000 N   0  0  0  0  0  0  0  0  0  0  0  0
    0.0000    0.0000    0.0000 C   0  0  0  0  0  0  0  0  0  0  0  0
    0.0000    0.0000    0.0000 N   0  0  0  0  0  0  0  0  0  0  0  0
    0.0000    0.0000    0.0000 C   0  0  0  0  0  0  0  0  0  0  0  0
    0.0000    0.0000    0.0000 C   0  0  0  0  0  0  0  0  0  0  0  0
    0.0000    0.0000    0.0000 C   0  0  0  0  0  0  0  0  0  0  0  0
    0.0000    0.0000    0.0000 N   0  0  0  0  0  0  0  0  0  0  0  0
    0.0000    0.0000    0.0000 C   0  0  0  0  0  0  0  0  0  0  0  0
    0.0000    0.0000    0.0000 C   0  0  0  0  0  0  0  0  0  0  0  0
    0.0000    0.0000    0.0000 C   0  0  0  0  0  0  0  0  0  0  0  0
    0.0000    0.0000    0.0000 F   0  0  0  0  0  0  0  0  0  0  0  0
    0.0000    0.0000    0.0000 C   0  0  0  0  0  0  0  0  0  0  0  0
    0.0000    0.0000    0.0000 C   0  0  0  0  0  0  0  0  0  0  0  0
    0.0000    0.0000    0.0000 C   0  0  0  0  0  0  0  0  0  0  0  0
    0.0000    0.0000    0.0000 F   0  0  0  0  0  0  0  0  0  0  0  0
    0.0000    0.0000    0.0000 C   0  0  0  0  0  0  0  0  0  0  0  0
    0.0000    0.0000    0.0000 N   0  0  0  0  0  0  0  0  0  0  0  0
    0.0000    0.0000    0.0000 C   0  0  0  0  0  0  0  0  0  0  0  0
    0.0000    0.0000    0.0000 N   0  0  0  0  0  0  0  0  0  0  0  0
  1  2  1  0
  2  3  2  0
  3  4  1  0
  4  5  1  0
  4  6  2  0
  6  7  1  0
  7  8  2  0
  8  9  1  0
  9 10  1  0
 10 11  2  0
 11 12  1  0
 12 13  1  0
 12 14  2  0
 14 15  1  0
 15 16  2  0
 16 17  1  0
  8 18  1  0
 18 19  2  0
 19 20  1  0
 20 21  2  0
 21  2  1  0
 20  6  1  0
 16 10  1  0
M  END
>  <pIC50>  (509) 
6.35

>  <ChEMBL_ID>  (509) 
CHEMBL2382324

>  <document_journal>  (509) 
J. Med. Chem.

>  <bao_endpoint>  (509) 
BAO_0000190

>  <potential_duplicate>  (509) 
False

>  <uo_units>  (509) 
UO_0000065

>  <canonical_smiles>  (509) 
Nc1nc(N)c2cc(Nc3cc(F)ccc3F)cnc2n1

>  <parent_molecule_chembl_id>  (509) 
CHEMBL2382324

>  <assay_type>  (509) 
B

>  <src_id>  (509) 
1

>  <ligand_efficiency>  (509) 
{u'le': u'0.41', u'bei': u'22.02', u'sei': u'6.18', u'lle': u'4.39'}

>  <standard_flag>  (509) 
True

>  <molecule_chembl_id>  (509) 
CHEMBL2382324

>  <target_organism>  (509) 
Homo sapiens

>  <standard_units>  (509) 
nM

>  <record_id>  (509) 
1895086

>  <document_chembl_id>  (509) 
CHEMBL2380288

>  <bao_format>  (509) 
BAO_0000357

>  <data_validity_description>  (509) 
None

>  <activity_id>  (509) 
13297397

>  <standard_type>  (509) 
IC50

>  <target_chembl_id>  (509) 
CHEMBL202

>  <data_validity_comment>  (509) 
None

>  <published_value>  (509) 
0.45

>  <document_year>  (509) 
2013

>  <target_pref_name>  (509) 
Dihydrofolate reductase

>  <assay_chembl_id>  (509) 
CHEMBL2384165

>  <standard_relation>  (509) 
=

>  <assay_description>  (509) 
Inhibition of human recombinant DHFR

>  <published_relation>  (509) 
=

>  <standard_value>  (509) 
450

>  <qudt_units>  (509) 
http://www.openphacts.org/units/Nanomolar

>  <target_tax_id>  (509) 
9606

>  <bao_label>  (509) 
single protein format

>  <published_units>  (509) 
uM

>  <pchembl_value>  (509) 
6.35

>  <published_type>  (509) 
IC50

>  <activity_comment>  (509) 
None

$$$$

     RDKit          

 23 26  0  0  0  0  0  0  0  0999 V2000
    0.0000    0.0000    0.0000 N   0  0  0  0  0  0  0  0  0  0  0  0
    0.0000    0.0000    0.0000 C   0  0  0  0  0  0  0  0  0  0  0  0
    0.0000    0.0000    0.0000 N   0  0  0  0  0  0  0  0  0  0  0  0
    0.0000    0.0000    0.0000 C   0  0  0  0  0  0  0  0  0  0  0  0
    0.0000    0.0000    0.0000 N   0  0  0  0  0  0  0  0  0  0  0  0
    0.0000    0.0000    0.0000 C   0  0  0  0  0  0  0  0  0  0  0  0
    0.0000    0.0000    0.0000 C   0  0  0  0  0  0  0  0  0  0  0  0
    0.0000    0.0000    0.0000 C   0  0  0  0  0  0  0  0  0  0  0  0
    0.0000    0.0000    0.0000 N   0  0  0  0  0  0  0  0  0  0  0  0
    0.0000    0.0000    0.0000 C   0  0  0  0  0  0  0  0  0  0  0  0
    0.0000    0.0000    0.0000 C   0  0  0  0  0  0  0  0  0  0  0  0
    0.0000    0.0000    0.0000 C   0  0  0  0  0  0  0  0  0  0  0  0
    0.0000    0.0000    0.0000 C   0  0  0  0  0  0  0  0  0  0  0  0
    0.0000    0.0000    0.0000 C   0  0  0  0  0  0  0  0  0  0  0  0
    0.0000    0.0000    0.0000 C   0  0  0  0  0  0  0  0  0  0  0  0
    0.0000    0.0000    0.0000 C   0  0  0  0  0  0  0  0  0  0  0  0
    0.0000    0.0000    0.0000 C   0  0  0  0  0  0  0  0  0  0  0  0
    0.0000    0.0000    0.0000 C   0  0  0  0  0  0  0  0  0  0  0  0
    0.0000    0.0000    0.0000 C   0  0  0  0  0  0  0  0  0  0  0  0
    0.0000    0.0000    0.0000 C   0  0  0  0  0  0  0  0  0  0  0  0
    0.0000    0.0000    0.0000 N   0  0  0  0  0  0  0  0  0  0  0  0
    0.0000    0.0000    0.0000 C   0  0  0  0  0  0  0  0  0  0  0  0
    0.0000    0.0000    0.0000 N   0  0  0  0  0  0  0  0  0  0  0  0
  1  2  1  0
  2  3  2  0
  3  4  1  0
  4  5  1  0
  4  6  2  0
  6  7  1  0
  7  8  2  0
  8  9  1  0
  9 10  1  0
 10 11  2  0
 11 12  1  0
 12 13  2  0
 13 14  1  0
 14 15  2  0
 15 16  1  0
 16 17  2  0
 17 18  1  0
 18 19  2  0
  8 20  1  0
 20 21  2  0
 21 22  1  0
 22 23  2  0
 23  2  1  0
 22  6  1  0
 19 10  1  0
 19 14  1  0
M  END
>  <pIC50>  (510) 
5.68

>  <ChEMBL_ID>  (510) 
CHEMBL2382323

>  <document_journal>  (510) 
J. Med. Chem.

>  <bao_endpoint>  (510) 
BAO_0000190

>  <potential_duplicate>  (510) 
False

>  <uo_units>  (510) 
UO_0000065

>  <canonical_smiles>  (510) 
Nc1nc(N)c2cc(Nc3cccc4ccccc34)cnc2n1

>  <parent_molecule_chembl_id>  (510) 
CHEMBL2382323

>  <assay_type>  (510) 
B

>  <src_id>  (510) 
1

>  <ligand_efficiency>  (510) 
{u'le': u'0.34', u'bei': u'18.78', u'sei': u'5.53', u'lle': u'3.22'}

>  <standard_flag>  (510) 
True

>  <molecule_chembl_id>  (510) 
CHEMBL2382323

>  <target_organism>  (510) 
Homo sapiens

>  <standard_units>  (510) 
nM

>  <record_id>  (510) 
1895085

>  <document_chembl_id>  (510) 
CHEMBL2380288

>  <bao_format>  (510) 
BAO_0000357

>  <data_validity_description>  (510) 
None

>  <activity_id>  (510) 
13297398

>  <standard_type>  (510) 
IC50

>  <target_chembl_id>  (510) 
CHEMBL202

>  <data_validity_comment>  (510) 
None

>  <published_value>  (510) 
2.1

>  <document_year>  (510) 
2013

>  <target_pref_name>  (510) 
Dihydrofolate reductase

>  <assay_chembl_id>  (510) 
CHEMBL2384165

>  <standard_relation>  (510) 
=

>  <assay_description>  (510) 
Inhibition of human recombinant DHFR

>  <published_relation>  (510) 
=

>  <standard_value>  (510) 
2100

>  <qudt_units>  (510) 
http://www.openphacts.org/units/Nanomolar

>  <target_tax_id>  (510) 
9606

>  <bao_label>  (510) 
single protein format

>  <published_units>  (510) 
uM

>  <pchembl_value>  (510) 
5.68

>  <published_type>  (510) 
IC50

>  <activity_comment>  (510) 
None

$$$$

     RDKit          

 22 24  0  0  0  0  0  0  0  0999 V2000
    0.0000    0.0000    0.0000 N   0  0  0  0  0  0  0  0  0  0  0  0
    0.0000    0.0000    0.0000 C   0  0  0  0  0  0  0  0  0  0  0  0
    0.0000    0.0000    0.0000 N   0  0  0  0  0  0  0  0  0  0  0  0
    0.0000    0.0000    0.0000 C   0  0  0  0  0  0  0  0  0  0  0  0
    0.0000    0.0000    0.0000 N   0  0  0  0  0  0  0  0  0  0  0  0
    0.0000    0.0000    0.0000 C   0  0  0  0  0  0  0  0  0  0  0  0
    0.0000    0.0000    0.0000 C   0  0  0  0  0  0  0  0  0  0  0  0
    0.0000    0.0000    0.0000 C   0  0  0  0  0  0  0  0  0  0  0  0
    0.0000    0.0000    0.0000 N   0  0  0  0  0  0  0  0  0  0  0  0
    0.0000    0.0000    0.0000 C   0  0  0  0  0  0  0  0  0  0  0  0
    0.0000    0.0000    0.0000 C   0  0  0  0  0  0  0  0  0  0  0  0
    0.0000    0.0000    0.0000 C   0  0  0  0  0  0  0  0  0  0  0  0
    0.0000    0.0000    0.0000 C   0  0  0  0  0  0  0  0  0  0  0  0
    0.0000    0.0000    0.0000 C   0  0  0  0  0  0  0  0  0  0  0  0
    0.0000    0.0000    0.0000 C   0  0  0  0  0  0  0  0  0  0  0  0
    0.0000    0.0000    0.0000 N   0  0  0  0  0  0  0  0  0  0  0  0
    0.0000    0.0000    0.0000 O   0  0  0  0  0  0  0  0  0  0  0  0
    0.0000    0.0000    0.0000 O   0  0  0  0  0  0  0  0  0  0  0  0
    0.0000    0.0000    0.0000 C   0  0  0  0  0  0  0  0  0  0  0  0
    0.0000    0.0000    0.0000 N   0  0  0  0  0  0  0  0  0  0  0  0
    0.0000    0.0000    0.0000 C   0  0  0  0  0  0  0  0  0  0  0  0
    0.0000    0.0000    0.0000 N   0  0  0  0  0  0  0  0  0  0  0  0
  1  2  1  0
  2  3  2  0
  3  4  1  0
  4  5  1  0
  4  6  2  0
  6  7  1  0
  7  8  2  0
  8  9  1  0
  9 10  1  0
 10 11  2  0
 11 12  1  0
 12 13  2  0
 13 14  1  0
 14 15  2  0
 13 16  1  0
 16 17  2  0
 16 18  1  0
  8 19  1  0
 19 20  2  0
 20 21  1  0
 21 22  2  0
 22  2  1  0
 21  6  1  0
 15 10  1  0
M  CHG  2  16   1  18  -1
M  END
>  <pIC50>  (511) 
5.14

>  <ChEMBL_ID>  (511) 
CHEMBL2382322

>  <document_journal>  (511) 
J. Med. Chem.

>  <bao_endpoint>  (511) 
BAO_0000190

>  <potential_duplicate>  (511) 
False

>  <uo_units>  (511) 
UO_0000065

>  <canonical_smiles>  (511) 
Nc1nc(N)c2cc(Nc3ccc(cc3)[N+](=O)[O-])cnc2n1

>  <parent_molecule_chembl_id>  (511) 
CHEMBL2382322

>  <assay_type>  (511) 
B

>  <src_id>  (511) 
1

>  <ligand_efficiency>  (511) 
{u'le': u'0.32', u'bei': u'17.3', u'sei': u'3.46', u'lle': u'3.7'}

>  <standard_flag>  (511) 
True

>  <molecule_chembl_id>  (511) 
CHEMBL2382322

>  <target_organism>  (511) 
Homo sapiens

>  <standard_units>  (511) 
nM

>  <record_id>  (511) 
1895084

>  <document_chembl_id>  (511) 
CHEMBL2380288

>  <bao_format>  (511) 
BAO_0000357

>  <data_validity_description>  (511) 
None

>  <activity_id>  (511) 
13297399

>  <standard_type>  (511) 
IC50

>  <target_chembl_id>  (511) 
CHEMBL202

>  <data_validity_comment>  (511) 
None

>  <published_value>  (511) 
7.2

>  <document_year>  (511) 
2013

>  <target_pref_name>  (511) 
Dihydrofolate reductase

>  <assay_chembl_id>  (511) 
CHEMBL2384165

>  <standard_relation>  (511) 
=

>  <assay_description>  (511) 
Inhibition of human recombinant DHFR

>  <published_relation>  (511) 
=

>  <standard_value>  (511) 
7200

>  <qudt_units>  (511) 
http://www.openphacts.org/units/Nanomolar

>  <target_tax_id>  (511) 
9606

>  <bao_label>  (511) 
single protein format

>  <published_units>  (511) 
uM

>  <pchembl_value>  (511) 
5.14

>  <published_type>  (511) 
IC50

>  <activity_comment>  (511) 
None

$$$$

     RDKit          

 23 26  0  0  0  0  0  0  0  0999 V2000
    0.0000    0.0000    0.0000 N   0  0  0  0  0  0  0  0  0  0  0  0
    0.0000    0.0000    0.0000 C   0  0  0  0  0  0  0  0  0  0  0  0
    0.0000    0.0000    0.0000 N   0  0  0  0  0  0  0  0  0  0  0  0
    0.0000    0.0000    0.0000 C   0  0  0  0  0  0  0  0  0  0  0  0
    0.0000    0.0000    0.0000 N   0  0  0  0  0  0  0  0  0  0  0  0
    0.0000    0.0000    0.0000 C   0  0  0  0  0  0  0  0  0  0  0  0
    0.0000    0.0000    0.0000 C   0  0  0  0  0  0  0  0  0  0  0  0
    0.0000    0.0000    0.0000 C   0  0  0  0  0  0  0  0  0  0  0  0
    0.0000    0.0000    0.0000 N   0  0  0  0  0  0  0  0  0  0  0  0
    0.0000    0.0000    0.0000 C   0  0  0  0  0  0  0  0  0  0  0  0
    0.0000    0.0000    0.0000 C   0  0  0  0  0  0  0  0  0  0  0  0
    0.0000    0.0000    0.0000 C   0  0  0  0  0  0  0  0  0  0  0  0
    0.0000    0.0000    0.0000 C   0  0  0  0  0  0  0  0  0  0  0  0
    0.0000    0.0000    0.0000 C   0  0  0  0  0  0  0  0  0  0  0  0
    0.0000    0.0000    0.0000 C   0  0  0  0  0  0  0  0  0  0  0  0
    0.0000    0.0000    0.0000 C   0  0  0  0  0  0  0  0  0  0  0  0
    0.0000    0.0000    0.0000 C   0  0  0  0  0  0  0  0  0  0  0  0
    0.0000    0.0000    0.0000 C   0  0  0  0  0  0  0  0  0  0  0  0
    0.0000    0.0000    0.0000 C   0  0  0  0  0  0  0  0  0  0  0  0
    0.0000    0.0000    0.0000 C   0  0  0  0  0  0  0  0  0  0  0  0
    0.0000    0.0000    0.0000 N   0  0  0  0  0  0  0  0  0  0  0  0
    0.0000    0.0000    0.0000 C   0  0  0  0  0  0  0  0  0  0  0  0
    0.0000    0.0000    0.0000 N   0  0  0  0  0  0  0  0  0  0  0  0
  1  2  1  0
  2  3  2  0
  3  4  1  0
  4  5  1  0
  4  6  2  0
  6  7  1  0
  7  8  2  0
  8  9  1  0
  9 10  1  0
 10 11  2  0
 11 12  1  0
 12 13  2  0
 13 14  1  0
 14 15  2  0
 15 16  1  0
 16 17  2  0
 17 18  1  0
 18 19  2  0
  8 20  1  0
 20 21  2  0
 21 22  1  0
 22 23  2  0
 23  2  1  0
 22  6  1  0
 19 10  1  0
 18 13  1  0
M  END
>  <pIC50>  (512) 
5.66

>  <ChEMBL_ID>  (512) 
CHEMBL2382321

>  <document_journal>  (512) 
J. Med. Chem.

>  <bao_endpoint>  (512) 
BAO_0000190

>  <potential_duplicate>  (512) 
False

>  <uo_units>  (512) 
UO_0000065

>  <canonical_smiles>  (512) 
Nc1nc(N)c2cc(Nc3ccc4ccccc4c3)cnc2n1

>  <parent_molecule_chembl_id>  (512) 
CHEMBL2382321

>  <assay_type>  (512) 
B

>  <src_id>  (512) 
1

>  <ligand_efficiency>  (512) 
{u'le': u'0.34', u'bei': u'18.71', u'sei': u'5.51', u'lle': u'3.2'}

>  <standard_flag>  (512) 
True

>  <molecule_chembl_id>  (512) 
CHEMBL2382321

>  <target_organism>  (512) 
Homo sapiens

>  <standard_units>  (512) 
nM

>  <record_id>  (512) 
1895083

>  <document_chembl_id>  (512) 
CHEMBL2380288

>  <bao_format>  (512) 
BAO_0000357

>  <data_validity_description>  (512) 
None

>  <activity_id>  (512) 
13297400

>  <standard_type>  (512) 
IC50

>  <target_chembl_id>  (512) 
CHEMBL202

>  <data_validity_comment>  (512) 
None

>  <published_value>  (512) 
2.2

>  <document_year>  (512) 
2013

>  <target_pref_name>  (512) 
Dihydrofolate reductase

>  <assay_chembl_id>  (512) 
CHEMBL2384165

>  <standard_relation>  (512) 
=

>  <assay_description>  (512) 
Inhibition of human recombinant DHFR

>  <published_relation>  (512) 
=

>  <standard_value>  (512) 
2200

>  <qudt_units>  (512) 
http://www.openphacts.org/units/Nanomolar

>  <target_tax_id>  (512) 
9606

>  <bao_label>  (512) 
single protein format

>  <published_units>  (512) 
uM

>  <pchembl_value>  (512) 
5.66

>  <published_type>  (512) 
IC50

>  <activity_comment>  (512) 
None

$$$$

     RDKit          

 22 24  0  0  0  0  0  0  0  0999 V2000
    0.0000    0.0000    0.0000 C   0  0  0  0  0  0  0  0  0  0  0  0
    0.0000    0.0000    0.0000 C   0  0  0  0  0  0  0  0  0  0  0  0
    0.0000    0.0000    0.0000 C   0  0  0  0  0  0  0  0  0  0  0  0
    0.0000    0.0000    0.0000 C   0  0  0  0  0  0  0  0  0  0  0  0
    0.0000    0.0000    0.0000 C   0  0  0  0  0  0  0  0  0  0  0  0
    0.0000    0.0000    0.0000 C   0  0  0  0  0  0  0  0  0  0  0  0
    0.0000    0.0000    0.0000 C   0  0  0  0  0  0  0  0  0  0  0  0
    0.0000    0.0000    0.0000 N   0  0  0  0  0  0  0  0  0  0  0  0
    0.0000    0.0000    0.0000 C   0  0  0  0  0  0  0  0  0  0  0  0
    0.0000    0.0000    0.0000 C   0  0  0  0  0  0  0  0  0  0  0  0
    0.0000    0.0000    0.0000 N   0  0  0  0  0  0  0  0  0  0  0  0
    0.0000    0.0000    0.0000 C   0  0  0  0  0  0  0  0  0  0  0  0
    0.0000    0.0000    0.0000 N   0  0  0  0  0  0  0  0  0  0  0  0
    0.0000    0.0000    0.0000 C   0  0  0  0  0  0  0  0  0  0  0  0
    0.0000    0.0000    0.0000 N   0  0  0  0  0  0  0  0  0  0  0  0
    0.0000    0.0000    0.0000 N   0  0  0  0  0  0  0  0  0  0  0  0
    0.0000    0.0000    0.0000 C   0  0  0  0  0  0  0  0  0  0  0  0
    0.0000    0.0000    0.0000 N   0  0  0  0  0  0  0  0  0  0  0  0
    0.0000    0.0000    0.0000 C   0  0  0  0  0  0  0  0  0  0  0  0
    0.0000    0.0000    0.0000 C   0  0  0  0  0  0  0  0  0  0  0  0
    0.0000    0.0000    0.0000 C   0  0  0  0  0  0  0  0  0  0  0  0
    0.0000    0.0000    0.0000 C   0  0  0  0  0  0  0  0  0  0  0  0
  1  2  1  0
  2  3  1  0
  2  4  1  0
  4  5  2  0
  5  6  1  0
  6  7  2  0
  7  8  1  0
  8  9  1  0
  9 10  2  0
 10 11  1  0
 11 12  2  0
 12 13  1  0
 13 14  2  0
 14 15  1  0
 14 16  1  0
 16 17  2  0
 17 18  1  0
 17 19  1  0
 19 20  2  0
  7 21  1  0
 21 22  2  0
 22  4  1  0
 20  9  1  0
 19 12  1  0
M  END
>  <pIC50>  (513) 
5.23

>  <ChEMBL_ID>  (513) 
CHEMBL2382320

>  <document_journal>  (513) 
J. Med. Chem.

>  <bao_endpoint>  (513) 
BAO_0000190

>  <potential_duplicate>  (513) 
False

>  <uo_units>  (513) 
UO_0000065

>  <canonical_smiles>  (513) 
CC(C)c1ccc(Nc2cnc3nc(N)nc(N)c3c2)cc1

>  <parent_molecule_chembl_id>  (513) 
CHEMBL2382320

>  <assay_type>  (513) 
B

>  <src_id>  (513) 
1

>  <ligand_efficiency>  (513) 
{u'le': u'0.32', u'bei': u'17.77', u'sei': u'5.09', u'lle': u'2.49'}

>  <standard_flag>  (513) 
True

>  <molecule_chembl_id>  (513) 
CHEMBL2382320

>  <target_organism>  (513) 
Homo sapiens

>  <standard_units>  (513) 
nM

>  <record_id>  (513) 
1895082

>  <document_chembl_id>  (513) 
CHEMBL2380288

>  <bao_format>  (513) 
BAO_0000357

>  <data_validity_description>  (513) 
None

>  <activity_id>  (513) 
13297401

>  <standard_type>  (513) 
IC50

>  <target_chembl_id>  (513) 
CHEMBL202

>  <data_validity_comment>  (513) 
None

>  <published_value>  (513) 
5.9

>  <document_year>  (513) 
2013

>  <target_pref_name>  (513) 
Dihydrofolate reductase

>  <assay_chembl_id>  (513) 
CHEMBL2384165

>  <standard_relation>  (513) 
=

>  <assay_description>  (513) 
Inhibition of human recombinant DHFR

>  <published_relation>  (513) 
=

>  <standard_value>  (513) 
5900

>  <qudt_units>  (513) 
http://www.openphacts.org/units/Nanomolar

>  <target_tax_id>  (513) 
9606

>  <bao_label>  (513) 
single protein format

>  <published_units>  (513) 
uM

>  <pchembl_value>  (513) 
5.23

>  <published_type>  (513) 
IC50

>  <activity_comment>  (513) 
None

$$$$

     RDKit          

 20 22  0  0  0  0  0  0  0  0999 V2000
    0.0000    0.0000    0.0000 C   0  0  0  0  0  0  0  0  0  0  0  0
    0.0000    0.0000    0.0000 C   0  0  0  0  0  0  0  0  0  0  0  0
    0.0000    0.0000    0.0000 C   0  0  0  0  0  0  0  0  0  0  0  0
    0.0000    0.0000    0.0000 C   0  0  0  0  0  0  0  0  0  0  0  0
    0.0000    0.0000    0.0000 C   0  0  0  0  0  0  0  0  0  0  0  0
    0.0000    0.0000    0.0000 N   0  0  0  0  0  0  0  0  0  0  0  0
    0.0000    0.0000    0.0000 C   0  0  0  0  0  0  0  0  0  0  0  0
    0.0000    0.0000    0.0000 C   0  0  0  0  0  0  0  0  0  0  0  0
    0.0000    0.0000    0.0000 N   0  0  0  0  0  0  0  0  0  0  0  0
    0.0000    0.0000    0.0000 C   0  0  0  0  0  0  0  0  0  0  0  0
    0.0000    0.0000    0.0000 N   0  0  0  0  0  0  0  0  0  0  0  0
    0.0000    0.0000    0.0000 C   0  0  0  0  0  0  0  0  0  0  0  0
    0.0000    0.0000    0.0000 N   0  0  0  0  0  0  0  0  0  0  0  0
    0.0000    0.0000    0.0000 N   0  0  0  0  0  0  0  0  0  0  0  0
    0.0000    0.0000    0.0000 C   0  0  0  0  0  0  0  0  0  0  0  0
    0.0000    0.0000    0.0000 N   0  0  0  0  0  0  0  0  0  0  0  0
    0.0000    0.0000    0.0000 C   0  0  0  0  0  0  0  0  0  0  0  0
    0.0000    0.0000    0.0000 C   0  0  0  0  0  0  0  0  0  0  0  0
    0.0000    0.0000    0.0000 C   0  0  0  0  0  0  0  0  0  0  0  0
    0.0000    0.0000    0.0000 C   0  0  0  0  0  0  0  0  0  0  0  0
  1  2  1  0
  2  3  2  0
  3  4  1  0
  4  5  2  0
  5  6  1  0
  6  7  1  0
  7  8  2  0
  8  9  1  0
  9 10  2  0
 10 11  1  0
 11 12  2  0
 12 13  1  0
 12 14  1  0
 14 15  2  0
 15 16  1  0
 15 17  1  0
 17 18  2  0
  5 19  1  0
 19 20  2  0
 20  2  1  0
 18  7  1  0
 17 10  1  0
M  END
>  <pIC50>  (514) 
5.68

>  <ChEMBL_ID>  (514) 
CHEMBL2382319

>  <document_journal>  (514) 
J. Med. Chem.

>  <bao_endpoint>  (514) 
BAO_0000190

>  <potential_duplicate>  (514) 
False

>  <uo_units>  (514) 
UO_0000065

>  <canonical_smiles>  (514) 
Cc1ccc(Nc2cnc3nc(N)nc(N)c3c2)cc1

>  <parent_molecule_chembl_id>  (514) 
CHEMBL2382319

>  <assay_type>  (514) 
B

>  <src_id>  (514) 
1

>  <ligand_efficiency>  (514) 
{u'le': u'0.39', u'bei': u'21.32', u'sei': u'5.53', u'lle': u'3.64'}

>  <standard_flag>  (514) 
True

>  <molecule_chembl_id>  (514) 
CHEMBL2382319

>  <target_organism>  (514) 
Homo sapiens

>  <standard_units>  (514) 
nM

>  <record_id>  (514) 
1895081

>  <document_chembl_id>  (514) 
CHEMBL2380288

>  <bao_format>  (514) 
BAO_0000357

>  <data_validity_description>  (514) 
None

>  <activity_id>  (514) 
13297402

>  <standard_type>  (514) 
IC50

>  <target_chembl_id>  (514) 
CHEMBL202

>  <data_validity_comment>  (514) 
None

>  <published_value>  (514) 
2.1

>  <document_year>  (514) 
2013

>  <target_pref_name>  (514) 
Dihydrofolate reductase

>  <assay_chembl_id>  (514) 
CHEMBL2384165

>  <standard_relation>  (514) 
=

>  <assay_description>  (514) 
Inhibition of human recombinant DHFR

>  <published_relation>  (514) 
=

>  <standard_value>  (514) 
2100

>  <qudt_units>  (514) 
http://www.openphacts.org/units/Nanomolar

>  <target_tax_id>  (514) 
9606

>  <bao_label>  (514) 
single protein format

>  <published_units>  (514) 
uM

>  <pchembl_value>  (514) 
5.68

>  <published_type>  (514) 
IC50

>  <activity_comment>  (514) 
None

$$$$

     RDKit          

 25 27  0  0  0  0  0  0  0  0999 V2000
    0.0000    0.0000    0.0000 C   0  0  0  0  0  0  0  0  0  0  0  0
    0.0000    0.0000    0.0000 O   0  0  0  0  0  0  0  0  0  0  0  0
    0.0000    0.0000    0.0000 C   0  0  0  0  0  0  0  0  0  0  0  0
    0.0000    0.0000    0.0000 C   0  0  0  0  0  0  0  0  0  0  0  0
    0.0000    0.0000    0.0000 C   0  0  0  0  0  0  0  0  0  0  0  0
    0.0000    0.0000    0.0000 N   0  0  0  0  0  0  0  0  0  0  0  0
    0.0000    0.0000    0.0000 C   0  0  0  0  0  0  0  0  0  0  0  0
    0.0000    0.0000    0.0000 C   0  0  0  0  0  0  0  0  0  0  0  0
    0.0000    0.0000    0.0000 N   0  0  0  0  0  0  0  0  0  0  0  0
    0.0000    0.0000    0.0000 C   0  0  0  0  0  0  0  0  0  0  0  0
    0.0000    0.0000    0.0000 N   0  0  0  0  0  0  0  0  0  0  0  0
    0.0000    0.0000    0.0000 C   0  0  0  0  0  0  0  0  0  0  0  0
    0.0000    0.0000    0.0000 N   0  0  0  0  0  0  0  0  0  0  0  0
    0.0000    0.0000    0.0000 N   0  0  0  0  0  0  0  0  0  0  0  0
    0.0000    0.0000    0.0000 C   0  0  0  0  0  0  0  0  0  0  0  0
    0.0000    0.0000    0.0000 N   0  0  0  0  0  0  0  0  0  0  0  0
    0.0000    0.0000    0.0000 C   0  0  0  0  0  0  0  0  0  0  0  0
    0.0000    0.0000    0.0000 C   0  0  0  0  0  0  0  0  0  0  0  0
    0.0000    0.0000    0.0000 C   0  0  0  0  0  0  0  0  0  0  0  0
    0.0000    0.0000    0.0000 C   0  0  0  0  0  0  0  0  0  0  0  0
    0.0000    0.0000    0.0000 O   0  0  0  0  0  0  0  0  0  0  0  0
    0.0000    0.0000    0.0000 C   0  0  0  0  0  0  0  0  0  0  0  0
    0.0000    0.0000    0.0000 C   0  0  0  0  0  0  0  0  0  0  0  0
    0.0000    0.0000    0.0000 O   0  0  0  0  0  0  0  0  0  0  0  0
    0.0000    0.0000    0.0000 C   0  0  0  0  0  0  0  0  0  0  0  0
  1  2  1  0
  2  3  1  0
  3  4  2  0
  4  5  1  0
  5  6  1  0
  6  7  1  0
  7  8  2  0
  8  9  1  0
  9 10  2  0
 10 11  1  0
 11 12  2  0
 12 13  1  0
 12 14  1  0
 14 15  2  0
 15 16  1  0
 15 17  1  0
 17 18  2  0
  5 19  2  0
 19 20  1  0
 20 21  1  0
 21 22  1  0
 20 23  2  0
 23 24  1  0
 24 25  1  0
 23  3  1  0
 18  7  1  0
 17 10  1  0
M  END
>  <pIC50>  (515) 
5.41

>  <ChEMBL_ID>  (515) 
CHEMBL2382318

>  <document_journal>  (515) 
J. Med. Chem.

>  <bao_endpoint>  (515) 
BAO_0000190

>  <potential_duplicate>  (515) 
False

>  <uo_units>  (515) 
UO_0000065

>  <canonical_smiles>  (515) 
COc1cc(Nc2cnc3nc(N)nc(N)c3c2)cc(OC)c1OC

>  <parent_molecule_chembl_id>  (515) 
CHEMBL2382318

>  <assay_type>  (515) 
B

>  <src_id>  (515) 
1

>  <ligand_efficiency>  (515) 
{u'le': u'0.3', u'bei': u'15.8', u'sei': u'4.15', u'lle': u'3.91'}

>  <standard_flag>  (515) 
True

>  <molecule_chembl_id>  (515) 
CHEMBL2382318

>  <target_organism>  (515) 
Homo sapiens

>  <standard_units>  (515) 
nM

>  <record_id>  (515) 
1895080

>  <document_chembl_id>  (515) 
CHEMBL2380288

>  <bao_format>  (515) 
BAO_0000357

>  <data_validity_description>  (515) 
None

>  <activity_id>  (515) 
13297403

>  <standard_type>  (515) 
IC50

>  <target_chembl_id>  (515) 
CHEMBL202

>  <data_validity_comment>  (515) 
None

>  <published_value>  (515) 
3.9

>  <document_year>  (515) 
2013

>  <target_pref_name>  (515) 
Dihydrofolate reductase

>  <assay_chembl_id>  (515) 
CHEMBL2384165

>  <standard_relation>  (515) 
=

>  <assay_description>  (515) 
Inhibition of human recombinant DHFR

>  <published_relation>  (515) 
=

>  <standard_value>  (515) 
3900

>  <qudt_units>  (515) 
http://www.openphacts.org/units/Nanomolar

>  <target_tax_id>  (515) 
9606

>  <bao_label>  (515) 
single protein format

>  <published_units>  (515) 
uM

>  <pchembl_value>  (515) 
5.41

>  <published_type>  (515) 
IC50

>  <activity_comment>  (515) 
None

$$$$

     RDKit          

 23 25  0  0  0  0  0  0  0  0999 V2000
    0.0000    0.0000    0.0000 C   0  0  0  0  0  0  0  0  0  0  0  0
    0.0000    0.0000    0.0000 O   0  0  0  0  0  0  0  0  0  0  0  0
    0.0000    0.0000    0.0000 C   0  0  0  0  0  0  0  0  0  0  0  0
    0.0000    0.0000    0.0000 C   0  0  0  0  0  0  0  0  0  0  0  0
    0.0000    0.0000    0.0000 C   0  0  0  0  0  0  0  0  0  0  0  0
    0.0000    0.0000    0.0000 C   0  0  0  0  0  0  0  0  0  0  0  0
    0.0000    0.0000    0.0000 O   0  0  0  0  0  0  0  0  0  0  0  0
    0.0000    0.0000    0.0000 C   0  0  0  0  0  0  0  0  0  0  0  0
    0.0000    0.0000    0.0000 C   0  0  0  0  0  0  0  0  0  0  0  0
    0.0000    0.0000    0.0000 N   0  0  0  0  0  0  0  0  0  0  0  0
    0.0000    0.0000    0.0000 C   0  0  0  0  0  0  0  0  0  0  0  0
    0.0000    0.0000    0.0000 C   0  0  0  0  0  0  0  0  0  0  0  0
    0.0000    0.0000    0.0000 N   0  0  0  0  0  0  0  0  0  0  0  0
    0.0000    0.0000    0.0000 C   0  0  0  0  0  0  0  0  0  0  0  0
    0.0000    0.0000    0.0000 N   0  0  0  0  0  0  0  0  0  0  0  0
    0.0000    0.0000    0.0000 C   0  0  0  0  0  0  0  0  0  0  0  0
    0.0000    0.0000    0.0000 N   0  0  0  0  0  0  0  0  0  0  0  0
    0.0000    0.0000    0.0000 N   0  0  0  0  0  0  0  0  0  0  0  0
    0.0000    0.0000    0.0000 C   0  0  0  0  0  0  0  0  0  0  0  0
    0.0000    0.0000    0.0000 N   0  0  0  0  0  0  0  0  0  0  0  0
    0.0000    0.0000    0.0000 C   0  0  0  0  0  0  0  0  0  0  0  0
    0.0000    0.0000    0.0000 C   0  0  0  0  0  0  0  0  0  0  0  0
    0.0000    0.0000    0.0000 C   0  0  0  0  0  0  0  0  0  0  0  0
  1  2  1  0
  2  3  1  0
  3  4  2  0
  4  5  1  0
  5  6  2  0
  6  7  1  0
  7  8  1  0
  6  9  1  0
  9 10  1  0
 10 11  1  0
 11 12  2  0
 12 13  1  0
 13 14  2  0
 14 15  1  0
 15 16  2  0
 16 17  1  0
 16 18  1  0
 18 19  2  0
 19 20  1  0
 19 21  1  0
 21 22  2  0
  9 23  2  0
 23  3  1  0
 22 11  1  0
 21 14  1  0
M  END
>  <pIC50>  (516) 
6.0

>  <ChEMBL_ID>  (516) 
CHEMBL2382317

>  <document_journal>  (516) 
J. Med. Chem.

>  <bao_endpoint>  (516) 
BAO_0000190

>  <potential_duplicate>  (516) 
False

>  <uo_units>  (516) 
UO_0000065

>  <canonical_smiles>  (516) 
COc1ccc(OC)c(Nc2cnc3nc(N)nc(N)c3c2)c1

>  <parent_molecule_chembl_id>  (516) 
CHEMBL2382317

>  <assay_type>  (516) 
B

>  <src_id>  (516) 
1

>  <ligand_efficiency>  (516) 
{u'le': u'0.36', u'bei': u'19.21', u'sei': u'4.95', u'lle': u'4.48'}

>  <standard_flag>  (516) 
True

>  <molecule_chembl_id>  (516) 
CHEMBL2382317

>  <target_organism>  (516) 
Homo sapiens

>  <standard_units>  (516) 
nM

>  <record_id>  (516) 
1895079

>  <document_chembl_id>  (516) 
CHEMBL2380288

>  <bao_format>  (516) 
BAO_0000357

>  <data_validity_description>  (516) 
None

>  <activity_id>  (516) 
13297404

>  <standard_type>  (516) 
IC50

>  <target_chembl_id>  (516) 
CHEMBL202

>  <data_validity_comment>  (516) 
None

>  <published_value>  (516) 
1

>  <document_year>  (516) 
2013

>  <target_pref_name>  (516) 
Dihydrofolate reductase

>  <assay_chembl_id>  (516) 
CHEMBL2384165

>  <standard_relation>  (516) 
=

>  <assay_description>  (516) 
Inhibition of human recombinant DHFR

>  <published_relation>  (516) 
=

>  <standard_value>  (516) 
1000

>  <qudt_units>  (516) 
http://www.openphacts.org/units/Nanomolar

>  <target_tax_id>  (516) 
9606

>  <bao_label>  (516) 
single protein format

>  <published_units>  (516) 
uM

>  <pchembl_value>  (516) 
6

>  <published_type>  (516) 
IC50

>  <activity_comment>  (516) 
None

$$$$

     RDKit          

 21 23  0  0  0  0  0  0  0  0999 V2000
    0.0000    0.0000    0.0000 C   0  0  0  0  0  0  0  0  0  0  0  0
    0.0000    0.0000    0.0000 O   0  0  0  0  0  0  0  0  0  0  0  0
    0.0000    0.0000    0.0000 C   0  0  0  0  0  0  0  0  0  0  0  0
    0.0000    0.0000    0.0000 C   0  0  0  0  0  0  0  0  0  0  0  0
    0.0000    0.0000    0.0000 C   0  0  0  0  0  0  0  0  0  0  0  0
    0.0000    0.0000    0.0000 C   0  0  0  0  0  0  0  0  0  0  0  0
    0.0000    0.0000    0.0000 C   0  0  0  0  0  0  0  0  0  0  0  0
    0.0000    0.0000    0.0000 C   0  0  0  0  0  0  0  0  0  0  0  0
    0.0000    0.0000    0.0000 N   0  0  0  0  0  0  0  0  0  0  0  0
    0.0000    0.0000    0.0000 C   0  0  0  0  0  0  0  0  0  0  0  0
    0.0000    0.0000    0.0000 C   0  0  0  0  0  0  0  0  0  0  0  0
    0.0000    0.0000    0.0000 N   0  0  0  0  0  0  0  0  0  0  0  0
    0.0000    0.0000    0.0000 C   0  0  0  0  0  0  0  0  0  0  0  0
    0.0000    0.0000    0.0000 N   0  0  0  0  0  0  0  0  0  0  0  0
    0.0000    0.0000    0.0000 C   0  0  0  0  0  0  0  0  0  0  0  0
    0.0000    0.0000    0.0000 N   0  0  0  0  0  0  0  0  0  0  0  0
    0.0000    0.0000    0.0000 N   0  0  0  0  0  0  0  0  0  0  0  0
    0.0000    0.0000    0.0000 C   0  0  0  0  0  0  0  0  0  0  0  0
    0.0000    0.0000    0.0000 N   0  0  0  0  0  0  0  0  0  0  0  0
    0.0000    0.0000    0.0000 C   0  0  0  0  0  0  0  0  0  0  0  0
    0.0000    0.0000    0.0000 C   0  0  0  0  0  0  0  0  0  0  0  0
  1  2  1  0
  2  3  1  0
  3  4  2  0
  4  5  1  0
  5  6  2  0
  6  7  1  0
  7  8  2  0
  8  9  1  0
  9 10  1  0
 10 11  2  0
 11 12  1  0
 12 13  2  0
 13 14  1  0
 14 15  2  0
 15 16  1  0
 15 17  1  0
 17 18  2  0
 18 19  1  0
 18 20  1  0
 20 21  2  0
  8  3  1  0
 21 10  1  0
 20 13  1  0
M  END
>  <pIC50>  (517) 
6.6

>  <ChEMBL_ID>  (517) 
CHEMBL2382316

>  <document_journal>  (517) 
J. Med. Chem.

>  <bao_endpoint>  (517) 
BAO_0000190

>  <potential_duplicate>  (517) 
False

>  <uo_units>  (517) 
UO_0000065

>  <canonical_smiles>  (517) 
COc1ccccc1Nc2cnc3nc(N)nc(N)c3c2

>  <parent_molecule_chembl_id>  (517) 
CHEMBL2382316

>  <assay_type>  (517) 
B

>  <src_id>  (517) 
1

>  <ligand_efficiency>  (517) 
{u'le': u'0.43', u'bei': u'23.39', u'sei': u'5.9', u'lle': u'5.07'}

>  <standard_flag>  (517) 
True

>  <molecule_chembl_id>  (517) 
CHEMBL2382316

>  <target_organism>  (517) 
Homo sapiens

>  <standard_units>  (517) 
nM

>  <record_id>  (517) 
1895078

>  <document_chembl_id>  (517) 
CHEMBL2380288

>  <bao_format>  (517) 
BAO_0000357

>  <data_validity_description>  (517) 
None

>  <activity_id>  (517) 
13297405

>  <standard_type>  (517) 
IC50

>  <target_chembl_id>  (517) 
CHEMBL202

>  <data_validity_comment>  (517) 
None

>  <published_value>  (517) 
0.25

>  <document_year>  (517) 
2013

>  <target_pref_name>  (517) 
Dihydrofolate reductase

>  <assay_chembl_id>  (517) 
CHEMBL2384165

>  <standard_relation>  (517) 
=

>  <assay_description>  (517) 
Inhibition of human recombinant DHFR

>  <published_relation>  (517) 
=

>  <standard_value>  (517) 
250

>  <qudt_units>  (517) 
http://www.openphacts.org/units/Nanomolar

>  <target_tax_id>  (517) 
9606

>  <bao_label>  (517) 
single protein format

>  <published_units>  (517) 
uM

>  <pchembl_value>  (517) 
6.6

>  <published_type>  (517) 
IC50

>  <activity_comment>  (517) 
None

$$$$

     RDKit          

 21 23  0  0  0  0  0  0  0  0999 V2000
    0.0000    0.0000    0.0000 C   0  0  0  0  0  0  0  0  0  0  0  0
    0.0000    0.0000    0.0000 O   0  0  0  0  0  0  0  0  0  0  0  0
    0.0000    0.0000    0.0000 C   0  0  0  0  0  0  0  0  0  0  0  0
    0.0000    0.0000    0.0000 C   0  0  0  0  0  0  0  0  0  0  0  0
    0.0000    0.0000    0.0000 C   0  0  0  0  0  0  0  0  0  0  0  0
    0.0000    0.0000    0.0000 C   0  0  0  0  0  0  0  0  0  0  0  0
    0.0000    0.0000    0.0000 N   0  0  0  0  0  0  0  0  0  0  0  0
    0.0000    0.0000    0.0000 C   0  0  0  0  0  0  0  0  0  0  0  0
    0.0000    0.0000    0.0000 C   0  0  0  0  0  0  0  0  0  0  0  0
    0.0000    0.0000    0.0000 N   0  0  0  0  0  0  0  0  0  0  0  0
    0.0000    0.0000    0.0000 C   0  0  0  0  0  0  0  0  0  0  0  0
    0.0000    0.0000    0.0000 N   0  0  0  0  0  0  0  0  0  0  0  0
    0.0000    0.0000    0.0000 C   0  0  0  0  0  0  0  0  0  0  0  0
    0.0000    0.0000    0.0000 N   0  0  0  0  0  0  0  0  0  0  0  0
    0.0000    0.0000    0.0000 N   0  0  0  0  0  0  0  0  0  0  0  0
    0.0000    0.0000    0.0000 C   0  0  0  0  0  0  0  0  0  0  0  0
    0.0000    0.0000    0.0000 N   0  0  0  0  0  0  0  0  0  0  0  0
    0.0000    0.0000    0.0000 C   0  0  0  0  0  0  0  0  0  0  0  0
    0.0000    0.0000    0.0000 C   0  0  0  0  0  0  0  0  0  0  0  0
    0.0000    0.0000    0.0000 C   0  0  0  0  0  0  0  0  0  0  0  0
    0.0000    0.0000    0.0000 C   0  0  0  0  0  0  0  0  0  0  0  0
  1  2  1  0
  2  3  1  0
  3  4  2  0
  4  5  1  0
  5  6  2  0
  6  7  1  0
  7  8  1  0
  8  9  2  0
  9 10  1  0
 10 11  2  0
 11 12  1  0
 12 13  2  0
 13 14  1  0
 13 15  1  0
 15 16  2  0
 16 17  1  0
 16 18  1  0
 18 19  2  0
  6 20  1  0
 20 21  2  0
 21  3  1  0
 19  8  1  0
 18 11  1  0
M  END
>  <pIC50>  (518) 
5.44

>  <ChEMBL_ID>  (518) 
CHEMBL2382315

>  <document_journal>  (518) 
J. Med. Chem.

>  <bao_endpoint>  (518) 
BAO_0000190

>  <potential_duplicate>  (518) 
False

>  <uo_units>  (518) 
UO_0000065

>  <canonical_smiles>  (518) 
COc1ccc(Nc2cnc3nc(N)nc(N)c3c2)cc1

>  <parent_molecule_chembl_id>  (518) 
CHEMBL2382315

>  <assay_type>  (518) 
B

>  <src_id>  (518) 
1

>  <ligand_efficiency>  (518) 
{u'le': u'0.35', u'bei': u'19.26', u'sei': u'4.86', u'lle': u'3.91'}

>  <standard_flag>  (518) 
True

>  <molecule_chembl_id>  (518) 
CHEMBL2382315

>  <target_organism>  (518) 
Homo sapiens

>  <standard_units>  (518) 
nM

>  <record_id>  (518) 
1895077

>  <document_chembl_id>  (518) 
CHEMBL2380288

>  <bao_format>  (518) 
BAO_0000357

>  <data_validity_description>  (518) 
None

>  <activity_id>  (518) 
13297406

>  <standard_type>  (518) 
IC50

>  <target_chembl_id>  (518) 
CHEMBL202

>  <data_validity_comment>  (518) 
None

>  <published_value>  (518) 
3.65

>  <document_year>  (518) 
2013

>  <target_pref_name>  (518) 
Dihydrofolate reductase

>  <assay_chembl_id>  (518) 
CHEMBL2384165

>  <standard_relation>  (518) 
=

>  <assay_description>  (518) 
Inhibition of human recombinant DHFR

>  <published_relation>  (518) 
=

>  <standard_value>  (518) 
3650

>  <qudt_units>  (518) 
http://www.openphacts.org/units/Nanomolar

>  <target_tax_id>  (518) 
9606

>  <bao_label>  (518) 
single protein format

>  <published_units>  (518) 
uM

>  <pchembl_value>  (518) 
5.44

>  <published_type>  (518) 
IC50

>  <activity_comment>  (518) 
None

$$$$

     RDKit          

 19 21  0  0  0  0  0  0  0  0999 V2000
    0.0000    0.0000    0.0000 N   0  0  0  0  0  0  0  0  0  0  0  0
    0.0000    0.0000    0.0000 C   0  0  0  0  0  0  0  0  0  0  0  0
    0.0000    0.0000    0.0000 N   0  0  0  0  0  0  0  0  0  0  0  0
    0.0000    0.0000    0.0000 C   0  0  0  0  0  0  0  0  0  0  0  0
    0.0000    0.0000    0.0000 N   0  0  0  0  0  0  0  0  0  0  0  0
    0.0000    0.0000    0.0000 C   0  0  0  0  0  0  0  0  0  0  0  0
    0.0000    0.0000    0.0000 C   0  0  0  0  0  0  0  0  0  0  0  0
    0.0000    0.0000    0.0000 C   0  0  0  0  0  0  0  0  0  0  0  0
    0.0000    0.0000    0.0000 N   0  0  0  0  0  0  0  0  0  0  0  0
    0.0000    0.0000    0.0000 C   0  0  0  0  0  0  0  0  0  0  0  0
    0.0000    0.0000    0.0000 C   0  0  0  0  0  0  0  0  0  0  0  0
    0.0000    0.0000    0.0000 C   0  0  0  0  0  0  0  0  0  0  0  0
    0.0000    0.0000    0.0000 C   0  0  0  0  0  0  0  0  0  0  0  0
    0.0000    0.0000    0.0000 C   0  0  0  0  0  0  0  0  0  0  0  0
    0.0000    0.0000    0.0000 C   0  0  0  0  0  0  0  0  0  0  0  0
    0.0000    0.0000    0.0000 C   0  0  0  0  0  0  0  0  0  0  0  0
    0.0000    0.0000    0.0000 N   0  0  0  0  0  0  0  0  0  0  0  0
    0.0000    0.0000    0.0000 C   0  0  0  0  0  0  0  0  0  0  0  0
    0.0000    0.0000    0.0000 N   0  0  0  0  0  0  0  0  0  0  0  0
  1  2  1  0
  2  3  2  0
  3  4  1  0
  4  5  1  0
  4  6  2  0
  6  7  1  0
  7  8  2  0
  8  9  1  0
  9 10  1  0
 10 11  2  0
 11 12  1  0
 12 13  2  0
 13 14  1  0
 14 15  2  0
  8 16  1  0
 16 17  2  0
 17 18  1  0
 18 19  2  0
 19  2  1  0
 18  6  1  0
 15 10  1  0
M  END
>  <pIC50>  (519) 
6.72

>  <ChEMBL_ID>  (519) 
CHEMBL2382314

>  <document_journal>  (519) 
J. Med. Chem.

>  <bao_endpoint>  (519) 
BAO_0000190

>  <potential_duplicate>  (519) 
False

>  <uo_units>  (519) 
UO_0000065

>  <canonical_smiles>  (519) 
Nc1nc(N)c2cc(Nc3ccccc3)cnc2n1

>  <parent_molecule_chembl_id>  (519) 
CHEMBL2382314

>  <assay_type>  (519) 
B

>  <src_id>  (519) 
1

>  <ligand_efficiency>  (519) 
{u'le': u'0.48', u'bei': u'26.64', u'sei': u'6.54', u'lle': u'5.17'}

>  <standard_flag>  (519) 
True

>  <molecule_chembl_id>  (519) 
CHEMBL2382314

>  <target_organism>  (519) 
Homo sapiens

>  <standard_units>  (519) 
nM

>  <record_id>  (519) 
1895076

>  <document_chembl_id>  (519) 
CHEMBL2380288

>  <bao_format>  (519) 
BAO_0000357

>  <data_validity_description>  (519) 
None

>  <activity_id>  (519) 
13297407

>  <standard_type>  (519) 
IC50

>  <target_chembl_id>  (519) 
CHEMBL202

>  <data_validity_comment>  (519) 
None

>  <published_value>  (519) 
0.19

>  <document_year>  (519) 
2013

>  <target_pref_name>  (519) 
Dihydrofolate reductase

>  <assay_chembl_id>  (519) 
CHEMBL2384165

>  <standard_relation>  (519) 
=

>  <assay_description>  (519) 
Inhibition of human recombinant DHFR

>  <published_relation>  (519) 
=

>  <standard_value>  (519) 
190

>  <qudt_units>  (519) 
http://www.openphacts.org/units/Nanomolar

>  <target_tax_id>  (519) 
9606

>  <bao_label>  (519) 
single protein format

>  <published_units>  (519) 
uM

>  <pchembl_value>  (519) 
6.72

>  <published_type>  (519) 
IC50

>  <activity_comment>  (519) 
None

$$$$

     RDKit          

 31 34  0  0  0  0  0  0  0  0999 V2000
    0.0000    0.0000    0.0000 N   0  0  0  0  0  0  0  0  0  0  0  0
    0.0000    0.0000    0.0000 C   0  0  0  0  0  0  0  0  0  0  0  0
    0.0000    0.0000    0.0000 N   0  0  0  0  0  0  0  0  0  0  0  0
    0.0000    0.0000    0.0000 C   0  0  0  0  0  0  0  0  0  0  0  0
    0.0000    0.0000    0.0000 N   0  0  0  0  0  0  0  0  0  0  0  0
    0.0000    0.0000    0.0000 C   0  0  0  0  0  0  0  0  0  0  0  0
    0.0000    0.0000    0.0000 C   0  0  0  0  0  0  0  0  0  0  0  0
    0.0000    0.0000    0.0000 C   0  0  0  0  0  0  0  0  0  0  0  0
    0.0000    0.0000    0.0000 C   0  0  0  0  0  0  0  0  0  0  0  0
    0.0000    0.0000    0.0000 S   0  0  0  0  0  0  0  0  0  0  0  0
    0.0000    0.0000    0.0000 C   0  0  0  0  0  0  0  0  0  0  0  0
    0.0000    0.0000    0.0000 S   0  0  0  0  0  0  0  0  0  0  0  0
    0.0000    0.0000    0.0000 N   0  0  0  0  0  0  0  0  0  0  0  0
    0.0000    0.0000    0.0000 C   0  0  0  0  0  0  0  0  0  0  0  0
    0.0000    0.0000    0.0000 C   0  0  0  0  0  0  0  0  0  0  0  0
    0.0000    0.0000    0.0000 N   0  0  0  0  0  0  0  0  0  0  0  0
    0.0000    0.0000    0.0000 C   0  0  0  0  0  0  0  0  0  0  0  0
    0.0000    0.0000    0.0000 C   0  0  0  0  0  0  0  0  0  0  0  0
    0.0000    0.0000    0.0000 C   0  0  0  0  0  0  0  0  0  0  0  0
    0.0000    0.0000    0.0000 C   0  0  0  0  0  0  0  0  0  0  0  0
    0.0000    0.0000    0.0000 C   0  0  0  0  0  0  0  0  0  0  0  0
    0.0000    0.0000    0.0000 C   0  0  0  0  0  0  0  0  0  0  0  0
    0.0000    0.0000    0.0000 C   0  0  0  0  0  0  0  0  0  0  0  0
    0.0000    0.0000    0.0000 C   0  0  0  0  0  0  0  0  0  0  0  0
    0.0000    0.0000    0.0000 N   0  0  0  0  0  0  0  0  0  0  0  0
    0.0000    0.0000    0.0000 O   0  0  0  0  0  0  0  0  0  0  0  0
    0.0000    0.0000    0.0000 O   0  0  0  0  0  0  0  0  0  0  0  0
    0.0000    0.0000    0.0000 C   0  0  0  0  0  0  0  0  0  0  0  0
    0.0000    0.0000    0.0000 C   0  0  0  0  0  0  0  0  0  0  0  0
    0.0000    0.0000    0.0000 C   0  0  0  0  0  0  0  0  0  0  0  0
    0.0000    0.0000    0.0000 N   0  0  0  0  0  0  0  0  0  0  0  0
  1  2  1  0
  2  3  2  0
  3  4  1  0
  4  5  1  0
  4  6  2  0
  6  7  1  0
  7  8  2  0
  8  9  1  0
  9 10  1  0
 10 11  1  0
 11 12  2  0
 11 13  1  0
 13 14  1  0
 14 15  1  0
 15 16  1  0
 16 17  1  0
 17 18  1  0
 16 19  1  0
 19 20  2  0
 20 21  1  0
 21 22  2  0
 22 23  1  0
 23 24  2  0
 22 25  1  0
 25 26  2  0
 25 27  1  0
  8 28  1  0
 28 29  2  0
 29 30  1  0
 30 31  2  0
 31  2  1  0
 30  6  1  0
 18 13  1  0
 24 19  1  0
M  CHG  2  25   1  27  -1
M  END
>  <pIC50>  (520) 
5.79

>  <ChEMBL_ID>  (520) 
CHEMBL2387094

>  <document_journal>  (520) 
Eur. J. Med. Chem.

>  <bao_endpoint>  (520) 
BAO_0000190

>  <potential_duplicate>  (520) 
False

>  <uo_units>  (520) 
UO_0000065

>  <canonical_smiles>  (520) 
Nc1nc(N)c2cc(CSC(=S)N3CCN(CC3)c4ccc(cc4)[N+](=O)[O-])ccc2n1

>  <parent_molecule_chembl_id>  (520) 
CHEMBL2387094

>  <assay_type>  (520) 
B

>  <src_id>  (520) 
1

>  <ligand_efficiency>  (520) 
{u'le': u'0.26', u'bei': u'12.72', u'sei': u'3.09', u'lle': u'1.35'}

>  <standard_flag>  (520) 
True

>  <molecule_chembl_id>  (520) 
CHEMBL2387094

>  <target_organism>  (520) 
Homo sapiens

>  <standard_units>  (520) 
nM

>  <record_id>  (520) 
1897650

>  <document_chembl_id>  (520) 
CHEMBL2385040

>  <bao_format>  (520) 
BAO_0000357

>  <data_validity_description>  (520) 
None

>  <activity_id>  (520) 
13315548

>  <standard_type>  (520) 
IC50

>  <target_chembl_id>  (520) 
CHEMBL202

>  <data_validity_comment>  (520) 
None

>  <published_value>  (520) 
1.61

>  <document_year>  (520) 
2013

>  <target_pref_name>  (520) 
Dihydrofolate reductase

>  <assay_chembl_id>  (520) 
CHEMBL2388428

>  <standard_relation>  (520) 
=

>  <assay_description>  (520) 
Inhibition of human dihydrofolate reductase by spectrophotometric analysis

>  <published_relation>  (520) 
=

>  <standard_value>  (520) 
1610

>  <qudt_units>  (520) 
http://www.openphacts.org/units/Nanomolar

>  <target_tax_id>  (520) 
9606

>  <bao_label>  (520) 
single protein format

>  <published_units>  (520) 
uM

>  <pchembl_value>  (520) 
5.79

>  <published_type>  (520) 
IC50

>  <activity_comment>  (520) 
None

$$$$

     RDKit          

 29 32  0  0  0  0  0  0  0  0999 V2000
    0.0000    0.0000    0.0000 N   0  0  0  0  0  0  0  0  0  0  0  0
    0.0000    0.0000    0.0000 C   0  0  0  0  0  0  0  0  0  0  0  0
    0.0000    0.0000    0.0000 N   0  0  0  0  0  0  0  0  0  0  0  0
    0.0000    0.0000    0.0000 C   0  0  0  0  0  0  0  0  0  0  0  0
    0.0000    0.0000    0.0000 N   0  0  0  0  0  0  0  0  0  0  0  0
    0.0000    0.0000    0.0000 C   0  0  0  0  0  0  0  0  0  0  0  0
    0.0000    0.0000    0.0000 C   0  0  0  0  0  0  0  0  0  0  0  0
    0.0000    0.0000    0.0000 C   0  0  0  0  0  0  0  0  0  0  0  0
    0.0000    0.0000    0.0000 C   0  0  0  0  0  0  0  0  0  0  0  0
    0.0000    0.0000    0.0000 S   0  0  0  0  0  0  0  0  0  0  0  0
    0.0000    0.0000    0.0000 C   0  0  0  0  0  0  0  0  0  0  0  0
    0.0000    0.0000    0.0000 S   0  0  0  0  0  0  0  0  0  0  0  0
    0.0000    0.0000    0.0000 N   0  0  0  0  0  0  0  0  0  0  0  0
    0.0000    0.0000    0.0000 C   0  0  0  0  0  0  0  0  0  0  0  0
    0.0000    0.0000    0.0000 C   0  0  0  0  0  0  0  0  0  0  0  0
    0.0000    0.0000    0.0000 N   0  0  0  0  0  0  0  0  0  0  0  0
    0.0000    0.0000    0.0000 C   0  0  0  0  0  0  0  0  0  0  0  0
    0.0000    0.0000    0.0000 C   0  0  0  0  0  0  0  0  0  0  0  0
    0.0000    0.0000    0.0000 C   0  0  0  0  0  0  0  0  0  0  0  0
    0.0000    0.0000    0.0000 C   0  0  0  0  0  0  0  0  0  0  0  0
    0.0000    0.0000    0.0000 C   0  0  0  0  0  0  0  0  0  0  0  0
    0.0000    0.0000    0.0000 C   0  0  0  0  0  0  0  0  0  0  0  0
    0.0000    0.0000    0.0000 F   0  0  0  0  0  0  0  0  0  0  0  0
    0.0000    0.0000    0.0000 C   0  0  0  0  0  0  0  0  0  0  0  0
    0.0000    0.0000    0.0000 C   0  0  0  0  0  0  0  0  0  0  0  0
    0.0000    0.0000    0.0000 C   0  0  0  0  0  0  0  0  0  0  0  0
    0.0000    0.0000    0.0000 C   0  0  0  0  0  0  0  0  0  0  0  0
    0.0000    0.0000    0.0000 C   0  0  0  0  0  0  0  0  0  0  0  0
    0.0000    0.0000    0.0000 N   0  0  0  0  0  0  0  0  0  0  0  0
  1  2  1  0
  2  3  2  0
  3  4  1  0
  4  5  1  0
  4  6  2  0
  6  7  1  0
  7  8  2  0
  8  9  1  0
  9 10  1  0
 10 11  1  0
 11 12  2  0
 11 13  1  0
 13 14  1  0
 14 15  1  0
 15 16  1  0
 16 17  1  0
 17 18  1  0
 16 19  1  0
 19 20  2  0
 20 21  1  0
 21 22  2  0
 22 23  1  0
 22 24  1  0
 24 25  2  0
  8 26  1  0
 26 27  2  0
 27 28  1  0
 28 29  2  0
 29  2  1  0
 28  6  1  0
 18 13  1  0
 25 19  1  0
M  END
>  <pIC50>  (521) 
5.68

>  <ChEMBL_ID>  (521) 
CHEMBL2387090

>  <document_journal>  (521) 
Eur. J. Med. Chem.

>  <bao_endpoint>  (521) 
BAO_0000190

>  <potential_duplicate>  (521) 
False

>  <uo_units>  (521) 
UO_0000065

>  <canonical_smiles>  (521) 
Nc1nc(N)c2cc(CSC(=S)N3CCN(CC3)c4ccc(F)cc4)ccc2n1

>  <parent_molecule_chembl_id>  (521) 
CHEMBL2387090

>  <assay_type>  (521) 
B

>  <src_id>  (521) 
1

>  <ligand_efficiency>  (521) 
{u'le': u'0.27', u'bei': u'13.24', u'sei': u'4.01', u'lle': u'0.93'}

>  <standard_flag>  (521) 
True

>  <molecule_chembl_id>  (521) 
CHEMBL2387090

>  <target_organism>  (521) 
Homo sapiens

>  <standard_units>  (521) 
nM

>  <record_id>  (521) 
1897646

>  <document_chembl_id>  (521) 
CHEMBL2385040

>  <bao_format>  (521) 
BAO_0000357

>  <data_validity_description>  (521) 
None

>  <activity_id>  (521) 
13315549

>  <standard_type>  (521) 
IC50

>  <target_chembl_id>  (521) 
CHEMBL202

>  <data_validity_comment>  (521) 
None

>  <published_value>  (521) 
2.11

>  <document_year>  (521) 
2013

>  <target_pref_name>  (521) 
Dihydrofolate reductase

>  <assay_chembl_id>  (521) 
CHEMBL2388428

>  <standard_relation>  (521) 
=

>  <assay_description>  (521) 
Inhibition of human dihydrofolate reductase by spectrophotometric analysis

>  <published_relation>  (521) 
=

>  <standard_value>  (521) 
2110

>  <qudt_units>  (521) 
http://www.openphacts.org/units/Nanomolar

>  <target_tax_id>  (521) 
9606

>  <bao_label>  (521) 
single protein format

>  <published_units>  (521) 
uM

>  <pchembl_value>  (521) 
5.68

>  <published_type>  (521) 
IC50

>  <activity_comment>  (521) 
None

$$$$

     RDKit          

 30 33  0  0  0  0  0  0  0  0999 V2000
    0.0000    0.0000    0.0000 C   0  0  0  0  0  0  0  0  0  0  0  0
    0.0000    0.0000    0.0000 O   0  0  0  0  0  0  0  0  0  0  0  0
    0.0000    0.0000    0.0000 C   0  0  0  0  0  0  0  0  0  0  0  0
    0.0000    0.0000    0.0000 C   0  0  0  0  0  0  0  0  0  0  0  0
    0.0000    0.0000    0.0000 C   0  0  0  0  0  0  0  0  0  0  0  0
    0.0000    0.0000    0.0000 C   0  0  0  0  0  0  0  0  0  0  0  0
    0.0000    0.0000    0.0000 C   0  0  0  0  0  0  0  0  0  0  0  0
    0.0000    0.0000    0.0000 C   0  0  0  0  0  0  0  0  0  0  0  0
    0.0000    0.0000    0.0000 N   0  0  0  0  0  0  0  0  0  0  0  0
    0.0000    0.0000    0.0000 C   0  0  0  0  0  0  0  0  0  0  0  0
    0.0000    0.0000    0.0000 C   0  0  0  0  0  0  0  0  0  0  0  0
    0.0000    0.0000    0.0000 N   0  0  0  0  0  0  0  0  0  0  0  0
    0.0000    0.0000    0.0000 C   0  0  0  0  0  0  0  0  0  0  0  0
    0.0000    0.0000    0.0000 C   0  0  0  0  0  0  0  0  0  0  0  0
    0.0000    0.0000    0.0000 C   0  0  0  0  0  0  0  0  0  0  0  0
    0.0000    0.0000    0.0000 S   0  0  0  0  0  0  0  0  0  0  0  0
    0.0000    0.0000    0.0000 S   0  0  0  0  0  0  0  0  0  0  0  0
    0.0000    0.0000    0.0000 C   0  0  0  0  0  0  0  0  0  0  0  0
    0.0000    0.0000    0.0000 C   0  0  0  0  0  0  0  0  0  0  0  0
    0.0000    0.0000    0.0000 C   0  0  0  0  0  0  0  0  0  0  0  0
    0.0000    0.0000    0.0000 C   0  0  0  0  0  0  0  0  0  0  0  0
    0.0000    0.0000    0.0000 C   0  0  0  0  0  0  0  0  0  0  0  0
    0.0000    0.0000    0.0000 N   0  0  0  0  0  0  0  0  0  0  0  0
    0.0000    0.0000    0.0000 C   0  0  0  0  0  0  0  0  0  0  0  0
    0.0000    0.0000    0.0000 N   0  0  0  0  0  0  0  0  0  0  0  0
    0.0000    0.0000    0.0000 N   0  0  0  0  0  0  0  0  0  0  0  0
    0.0000    0.0000    0.0000 C   0  0  0  0  0  0  0  0  0  0  0  0
    0.0000    0.0000    0.0000 N   0  0  0  0  0  0  0  0  0  0  0  0
    0.0000    0.0000    0.0000 C   0  0  0  0  0  0  0  0  0  0  0  0
    0.0000    0.0000    0.0000 C   0  0  0  0  0  0  0  0  0  0  0  0
  1  2  1  0
  2  3  1  0
  3  4  2  0
  4  5  1  0
  5  6  2  0
  6  7  1  0
  7  8  2  0
  6  9  1  0
  9 10  1  0
 10 11  1  0
 11 12  1  0
 12 13  1  0
 13 14  1  0
 12 15  1  0
 15 16  2  0
 15 17  1  0
 17 18  1  0
 18 19  1  0
 19 20  2  0
 20 21  1  0
 21 22  2  0
 22 23  1  0
 23 24  2  0
 24 25  1  0
 24 26  1  0
 26 27  2  0
 27 28  1  0
 27 29  1  0
 29 30  2  0
  8  3  1  0
 14  9  1  0
 30 19  1  0
 29 22  1  0
M  END
>  <pIC50>  (522) 
5.23

>  <ChEMBL_ID>  (522) 
CHEMBL2387104

>  <document_journal>  (522) 
Eur. J. Med. Chem.

>  <bao_endpoint>  (522) 
BAO_0000190

>  <potential_duplicate>  (522) 
False

>  <uo_units>  (522) 
UO_0000065

>  <canonical_smiles>  (522) 
COc1ccc(cc1)N2CCN(CC2)C(=S)SCc3ccc4nc(N)nc(N)c4c3

>  <parent_molecule_chembl_id>  (522) 
CHEMBL2387104

>  <assay_type>  (522) 
B

>  <src_id>  (522) 
1

>  <ligand_efficiency>  (522) 
{u'le': u'0.24', u'bei': u'11.86', u'sei': u'3.46', u'lle': u'0.69'}

>  <standard_flag>  (522) 
True

>  <molecule_chembl_id>  (522) 
CHEMBL2387104

>  <target_organism>  (522) 
Homo sapiens

>  <standard_units>  (522) 
nM

>  <record_id>  (522) 
1897663

>  <document_chembl_id>  (522) 
CHEMBL2385040

>  <bao_format>  (522) 
BAO_0000357

>  <data_validity_description>  (522) 
None

>  <activity_id>  (522) 
13315550

>  <standard_type>  (522) 
IC50

>  <target_chembl_id>  (522) 
CHEMBL202

>  <data_validity_comment>  (522) 
None

>  <published_value>  (522) 
5.96

>  <document_year>  (522) 
2013

>  <target_pref_name>  (522) 
Dihydrofolate reductase

>  <assay_chembl_id>  (522) 
CHEMBL2388428

>  <standard_relation>  (522) 
=

>  <assay_description>  (522) 
Inhibition of human dihydrofolate reductase by spectrophotometric analysis

>  <published_relation>  (522) 
=

>  <standard_value>  (522) 
5960

>  <qudt_units>  (522) 
http://www.openphacts.org/units/Nanomolar

>  <target_tax_id>  (522) 
9606

>  <bao_label>  (522) 
single protein format

>  <published_units>  (522) 
uM

>  <pchembl_value>  (522) 
5.23

>  <published_type>  (522) 
IC50

>  <activity_comment>  (522) 
None

$$$$

     RDKit          

 19 21  0  0  0  0  0  0  0  0999 V2000
    0.0000    0.0000    0.0000 N   0  0  0  0  0  0  0  0  0  0  0  0
    0.0000    0.0000    0.0000 C   0  0  0  0  0  0  0  0  0  0  0  0
    0.0000    0.0000    0.0000 C   0  0  0  0  0  0  0  0  0  0  0  0
    0.0000    0.0000    0.0000 C   0  0  0  0  0  0  0  0  0  0  0  0
    0.0000    0.0000    0.0000 C   0  0  0  0  0  0  0  0  0  0  0  0
    0.0000    0.0000    0.0000 N   0  0  0  0  0  0  0  0  0  0  0  0
    0.0000    0.0000    0.0000 C   0  0  0  0  0  0  0  0  0  0  0  0
    0.0000    0.0000    0.0000 C   0  0  0  0  0  0  0  0  0  0  0  0
    0.0000    0.0000    0.0000 C   0  0  0  0  0  0  0  0  0  0  0  0
    0.0000    0.0000    0.0000 C   0  0  0  0  0  0  0  0  0  0  0  0
    0.0000    0.0000    0.0000 C   0  0  0  0  0  0  0  0  0  0  0  0
    0.0000    0.0000    0.0000 C   0  0  0  0  0  0  0  0  0  0  0  0
    0.0000    0.0000    0.0000 C   0  0  0  0  0  0  0  0  0  0  0  0
    0.0000    0.0000    0.0000 C   0  0  0  0  0  0  0  0  0  0  0  0
    0.0000    0.0000    0.0000 C   0  0  0  0  0  0  0  0  0  0  0  0
    0.0000    0.0000    0.0000 C   0  0  0  0  0  0  0  0  0  0  0  0
    0.0000    0.0000    0.0000 O   0  0  0  0  0  0  0  0  0  0  0  0
    0.0000    0.0000    0.0000 N   0  0  0  0  0  0  0  0  0  0  0  0
    0.0000    0.0000    0.0000 C   0  0  0  0  0  0  0  0  0  0  0  0
  1  2  1  0
  2  3  2  0
  3  4  1  0
  4  5  2  0
  5  6  1  0
  6  7  1  0
  7  8  2  0
  8  9  1  0
  9 10  1  0
 10 11  2  0
 11 12  1  0
 12 13  2  0
 13 14  1  0
 14 15  2  0
  8 16  1  0
 16 17  2  0
 16 18  1  0
 18 19  2  0
 19  2  1  0
 19  6  1  0
 15 10  1  0
M  END
>  <pIC50>  (523) 
5.06

>  <ChEMBL_ID>  (523) 
CHEMBL3218941

>  <document_journal>  (523) 
MedChemComm

>  <bao_endpoint>  (523) 
BAO_0000190

>  <potential_duplicate>  (523) 
False

>  <uo_units>  (523) 
UO_0000065

>  <canonical_smiles>  (523) 
NC1=CC=CN2C=C(Cc3ccccc3)C(=O)N=C12

>  <parent_molecule_chembl_id>  (523) 
CHEMBL3218941

>  <assay_type>  (523) 
B

>  <src_id>  (523) 
1

>  <ligand_efficiency>  (523) 
{u'le': u'0.36', u'bei': u'20.13', u'sei': u'8.62', u'lle': u'4.56'}

>  <standard_flag>  (523) 
True

>  <molecule_chembl_id>  (523) 
CHEMBL3218941

>  <target_organism>  (523) 
Homo sapiens

>  <standard_units>  (523) 
nM

>  <record_id>  (523) 
2073565

>  <document_chembl_id>  (523) 
CHEMBL3217611

>  <bao_format>  (523) 
BAO_0000357

>  <data_validity_description>  (523) 
None

>  <activity_id>  (523) 
14551459

>  <standard_type>  (523) 
IC50

>  <target_chembl_id>  (523) 
CHEMBL202

>  <data_validity_comment>  (523) 
None

>  <published_value>  (523) 
8.72

>  <document_year>  (523) 
2013

>  <target_pref_name>  (523) 
Dihydrofolate reductase

>  <assay_chembl_id>  (523) 
CHEMBL3226184

>  <standard_relation>  (523) 
=

>  <assay_description>  (523) 
Inhibition of human DHFR assessed as depletion of NADPH after 30 secs shaking by spectrophotometry

>  <published_relation>  (523) 
=

>  <standard_value>  (523) 
8720

>  <qudt_units>  (523) 
http://www.openphacts.org/units/Nanomolar

>  <target_tax_id>  (523) 
9606

>  <bao_label>  (523) 
single protein format

>  <published_units>  (523) 
uM

>  <pchembl_value>  (523) 
5.06

>  <published_type>  (523) 
IC50

>  <activity_comment>  (523) 
None

$$$$

     RDKit          

 23 25  0  0  0  0  0  0  0  0999 V2000
    0.0000    0.0000    0.0000 F   0  0  0  0  0  0  0  0  0  0  0  0
    0.0000    0.0000    0.0000 C   0  0  0  0  0  0  0  0  0  0  0  0
    0.0000    0.0000    0.0000 C   0  0  0  0  0  0  0  0  0  0  0  0
    0.0000    0.0000    0.0000 C   0  0  0  0  0  0  0  0  0  0  0  0
    0.0000    0.0000    0.0000 C   0  0  0  0  0  0  0  0  0  0  0  0
    0.0000    0.0000    0.0000 C   0  0  0  0  0  0  0  0  0  0  0  0
    0.0000    0.0000    0.0000 C   0  0  0  0  0  0  0  0  0  0  0  0
    0.0000    0.0000    0.0000 C   0  0  0  0  0  0  0  0  0  0  0  0
    0.0000    0.0000    0.0000 N   0  0  0  0  0  0  0  0  0  0  0  0
    0.0000    0.0000    0.0000 C   0  0  0  0  0  0  0  0  0  0  0  0
    0.0000    0.0000    0.0000 C   0  0  0  0  0  0  0  0  0  0  0  0
    0.0000    0.0000    0.0000 C   0  0  0  0  0  0  0  0  0  0  0  0
    0.0000    0.0000    0.0000 C   0  0  0  0  0  0  0  0  0  0  0  0
    0.0000    0.0000    0.0000 C   0  0  0  0  0  0  0  0  0  0  0  0
    0.0000    0.0000    0.0000 N   0  0  0  0  0  0  0  0  0  0  0  0
    0.0000    0.0000    0.0000 C   0  0  0  0  0  0  0  0  0  0  0  0
    0.0000    0.0000    0.0000 O   0  0  0  0  0  0  0  0  0  0  0  0
    0.0000    0.0000    0.0000 C   0  0  0  0  0  0  0  0  0  0  0  0
    0.0000    0.0000    0.0000 C   0  0  0  0  0  0  0  0  0  0  0  0
    0.0000    0.0000    0.0000 C   0  0  0  0  0  0  0  0  0  0  0  0
    0.0000    0.0000    0.0000 F   0  0  0  0  0  0  0  0  0  0  0  0
    0.0000    0.0000    0.0000 F   0  0  0  0  0  0  0  0  0  0  0  0
    0.0000    0.0000    0.0000 F   0  0  0  0  0  0  0  0  0  0  0  0
  1  2  1  0
  2  3  2  0
  3  4  1  0
  4  5  2  0
  5  6  1  0
  6  7  1  0
  7  8  2  0
  8  9  1  0
  9 10  1  0
 10 11  2  0
 11 12  1  0
 12 13  2  0
 13 14  1  0
 14 15  2  0
 15 16  1  0
 16 17  2  0
  5 18  1  0
 18 19  2  0
 18 20  1  0
 20 21  1  0
 20 22  1  0
 20 23  1  0
 19  2  1  0
 16  7  1  0
 14  9  1  0
M  END
>  <pIC50>  (524) 
5.51

>  <ChEMBL_ID>  (524) 
CHEMBL3218936

>  <document_journal>  (524) 
MedChemComm

>  <bao_endpoint>  (524) 
BAO_0000190

>  <potential_duplicate>  (524) 
False

>  <uo_units>  (524) 
UO_0000065

>  <canonical_smiles>  (524) 
Fc1ccc(CC2=CN3C=CC=CC3=NC2=O)c(c1)C(F)(F)F

>  <parent_molecule_chembl_id>  (524) 
CHEMBL3218936

>  <assay_type>  (524) 
B

>  <src_id>  (524) 
1

>  <ligand_efficiency>  (524) 
{u'le': u'0.33', u'bei': u'17.09', u'sei': u'16.86', u'lle': u'2.67'}

>  <standard_flag>  (524) 
True

>  <molecule_chembl_id>  (524) 
CHEMBL3218936

>  <target_organism>  (524) 
Homo sapiens

>  <standard_units>  (524) 
nM

>  <record_id>  (524) 
2073560

>  <document_chembl_id>  (524) 
CHEMBL3217611

>  <bao_format>  (524) 
BAO_0000357

>  <data_validity_description>  (524) 
None

>  <activity_id>  (524) 
14551460

>  <standard_type>  (524) 
IC50

>  <target_chembl_id>  (524) 
CHEMBL202

>  <data_validity_comment>  (524) 
None

>  <published_value>  (524) 
3.1

>  <document_year>  (524) 
2013

>  <target_pref_name>  (524) 
Dihydrofolate reductase

>  <assay_chembl_id>  (524) 
CHEMBL3226184

>  <standard_relation>  (524) 
=

>  <assay_description>  (524) 
Inhibition of human DHFR assessed as depletion of NADPH after 30 secs shaking by spectrophotometry

>  <published_relation>  (524) 
=

>  <standard_value>  (524) 
3100

>  <qudt_units>  (524) 
http://www.openphacts.org/units/Nanomolar

>  <target_tax_id>  (524) 
9606

>  <bao_label>  (524) 
single protein format

>  <published_units>  (524) 
uM

>  <pchembl_value>  (524) 
5.51

>  <published_type>  (524) 
IC50

>  <activity_comment>  (524) 
None

$$$$

     RDKit          

 29 32  0  0  0  0  0  0  0  0999 V2000
    0.0000    0.0000    0.0000 Cl  0  0  0  0  0  0  0  0  0  0  0  0
    0.0000    0.0000    0.0000 C   0  0  0  0  0  0  0  0  0  0  0  0
    0.0000    0.0000    0.0000 C   0  0  0  0  0  0  0  0  0  0  0  0
    0.0000    0.0000    0.0000 C   0  0  0  0  0  0  0  0  0  0  0  0
    0.0000    0.0000    0.0000 Cl  0  0  0  0  0  0  0  0  0  0  0  0
    0.0000    0.0000    0.0000 C   0  0  0  0  0  0  0  0  0  0  0  0
    0.0000    0.0000    0.0000 O   0  0  0  0  0  0  0  0  0  0  0  0
    0.0000    0.0000    0.0000 C   0  0  0  0  0  0  0  0  0  0  0  0
    0.0000    0.0000    0.0000 C   0  0  0  0  0  0  0  0  0  0  0  0
    0.0000    0.0000    0.0000 C   0  0  0  0  0  0  0  0  0  0  0  0
    0.0000    0.0000    0.0000 C   0  0  0  0  0  0  0  0  0  0  0  0
    0.0000    0.0000    0.0000 C   0  0  0  0  0  0  0  0  0  0  0  0
    0.0000    0.0000    0.0000 C   0  0  0  0  0  0  0  0  0  0  0  0
    0.0000    0.0000    0.0000 C   0  0  0  0  0  0  0  0  0  0  0  0
    0.0000    0.0000    0.0000 C   0  0  0  0  0  0  0  0  0  0  0  0
    0.0000    0.0000    0.0000 N   0  0  0  0  0  0  0  0  0  0  0  0
    0.0000    0.0000    0.0000 C   0  0  0  0  0  0  0  0  0  0  0  0
    0.0000    0.0000    0.0000 C   0  0  0  0  0  0  0  0  0  0  0  0
    0.0000    0.0000    0.0000 Br  0  0  0  0  0  0  0  0  0  0  0  0
    0.0000    0.0000    0.0000 C   0  0  0  0  0  0  0  0  0  0  0  0
    0.0000    0.0000    0.0000 C   0  0  0  0  0  0  0  0  0  0  0  0
    0.0000    0.0000    0.0000 C   0  0  0  0  0  0  0  0  0  0  0  0
    0.0000    0.0000    0.0000 N   0  0  0  0  0  0  0  0  0  0  0  0
    0.0000    0.0000    0.0000 C   0  0  0  0  0  0  0  0  0  0  0  0
    0.0000    0.0000    0.0000 O   0  0  0  0  0  0  0  0  0  0  0  0
    0.0000    0.0000    0.0000 C   0  0  0  0  0  0  0  0  0  0  0  0
    0.0000    0.0000    0.0000 N   0  0  0  0  0  0  0  0  0  0  0  0
    0.0000    0.0000    0.0000 C   0  0  0  0  0  0  0  0  0  0  0  0
    0.0000    0.0000    0.0000 Cl  0  0  0  0  0  0  0  0  0  0  0  0
  1  2  1  0
  2  3  2  0
  3  4  1  0
  4  5  1  0
  4  6  2  0
  6  7  1  0
  7  8  1  0
  8  9  2  0
  9 10  1  0
 10 11  2  0
 11 12  1  0
 12 13  1  0
 13 14  1  0
 14 15  2  0
 15 16  1  0
 16 17  1  0
 17 18  2  0
 18 19  1  0
 18 20  1  0
 20 21  2  0
 21 22  1  0
 22 23  2  0
 23 24  1  0
 24 25  2  0
 12 26  2  0
  6 27  1  0
 27 28  2  0
 28 29  1  0
 28  2  1  0
 26  8  1  0
 24 14  1  0
 22 16  1  0
M  END
>  <pIC50>  (525) 
5.56

>  <ChEMBL_ID>  (525) 
CHEMBL3218935

>  <document_journal>  (525) 
MedChemComm

>  <bao_endpoint>  (525) 
BAO_0000190

>  <potential_duplicate>  (525) 
False

>  <uo_units>  (525) 
UO_0000065

>  <canonical_smiles>  (525) 
Clc1cc(Cl)c(Oc2cccc(CC3=CN4C=C(Br)C=CC4=NC3=O)c2)nc1Cl

>  <parent_molecule_chembl_id>  (525) 
CHEMBL3218935

>  <assay_type>  (525) 
B

>  <src_id>  (525) 
1

>  <ligand_efficiency>  (525) 
{u'le': u'0.26', u'bei': u'10.88', u'sei': u'10.15', u'lle': u'0.26'}

>  <standard_flag>  (525) 
True

>  <molecule_chembl_id>  (525) 
CHEMBL3218935

>  <target_organism>  (525) 
Homo sapiens

>  <standard_units>  (525) 
nM

>  <record_id>  (525) 
2073559

>  <document_chembl_id>  (525) 
CHEMBL3217611

>  <bao_format>  (525) 
BAO_0000357

>  <data_validity_description>  (525) 
None

>  <activity_id>  (525) 
14551461

>  <standard_type>  (525) 
IC50

>  <target_chembl_id>  (525) 
CHEMBL202

>  <data_validity_comment>  (525) 
None

>  <published_value>  (525) 
2.73

>  <document_year>  (525) 
2013

>  <target_pref_name>  (525) 
Dihydrofolate reductase

>  <assay_chembl_id>  (525) 
CHEMBL3226184

>  <standard_relation>  (525) 
=

>  <assay_description>  (525) 
Inhibition of human DHFR assessed as depletion of NADPH after 30 secs shaking by spectrophotometry

>  <published_relation>  (525) 
=

>  <standard_value>  (525) 
2730

>  <qudt_units>  (525) 
http://www.openphacts.org/units/Nanomolar

>  <target_tax_id>  (525) 
9606

>  <bao_label>  (525) 
single protein format

>  <published_units>  (525) 
uM

>  <pchembl_value>  (525) 
5.56

>  <published_type>  (525) 
IC50

>  <activity_comment>  (525) 
None

$$$$

     RDKit          

 18 20  0  0  0  0  0  0  0  0999 V2000
    0.0000    0.0000    0.0000 O   0  0  0  0  0  0  0  0  0  0  0  0
    0.0000    0.0000    0.0000 C   0  0  0  0  0  0  0  0  0  0  0  0
    0.0000    0.0000    0.0000 N   0  0  0  0  0  0  0  0  0  0  0  0
    0.0000    0.0000    0.0000 C   0  0  0  0  0  0  0  0  0  0  0  0
    0.0000    0.0000    0.0000 N   0  0  0  0  0  0  0  0  0  0  0  0
    0.0000    0.0000    0.0000 C   0  0  0  0  0  0  0  0  0  0  0  0
    0.0000    0.0000    0.0000 C   0  0  0  0  0  0  0  0  0  0  0  0
    0.0000    0.0000    0.0000 O   0  0  0  0  0  0  0  0  0  0  0  0
    0.0000    0.0000    0.0000 N   0  0  0  0  0  0  0  0  0  0  0  0
    0.0000    0.0000    0.0000 C   0  0  0  0  0  0  0  0  0  0  0  0
    0.0000    0.0000    0.0000 C   0  0  0  0  0  0  0  0  0  0  0  0
    0.0000    0.0000    0.0000 C   0  0  0  0  0  0  0  0  0  0  0  0
    0.0000    0.0000    0.0000 C   0  0  0  0  0  0  0  0  0  0  0  0
    0.0000    0.0000    0.0000 C   0  0  0  0  0  0  0  0  0  0  0  0
    0.0000    0.0000    0.0000 N   0  0  0  0  0  0  0  0  0  0  0  0
    0.0000    0.0000    0.0000 C   0  0  0  0  0  0  0  0  0  0  0  0
    0.0000    0.0000    0.0000 C   0  0  0  0  0  0  0  0  0  0  0  0
    0.0000    0.0000    0.0000 C   0  0  0  0  0  0  0  0  0  0  0  0
  1  2  2  0
  2  3  1  0
  2  4  1  0
  4  5  1  0
  6  4  2  0
  5  7  2  0
  8  6  1  0
  6  9  1  0
  7 10  1  0
  7 11  1  0
 10  8  1  0
  9 12  2  0
 11 13  2  0
 14 11  1  0
 15 12  1  0
 12  3  1  0
 13 16  1  0
 17 14  2  0
 16 18  2  0
 18 17  1  0
M  END
>  <pIC50>  (526) 
4.24

>  <ChEMBL_ID>  (526) 
CHEMBL3228459

>  <document_journal>  (526) 
J. Med. Chem.

>  <bao_endpoint>  (526) 
BAO_0000190

>  <potential_duplicate>  (526) 
False

>  <uo_units>  (526) 
UO_0000065

>  <canonical_smiles>  (526) 
Nc1nc(O)c2N=C(COc2n1)c3ccccc3

>  <parent_molecule_chembl_id>  (526) 
CHEMBL3228459

>  <assay_type>  (526) 
B

>  <src_id>  (526) 
1

>  <ligand_efficiency>  (526) 
{u'le': u'0.32', u'bei': u'17.52', u'sei': u'4.53', u'lle': u'2.33'}

>  <standard_flag>  (526) 
True

>  <molecule_chembl_id>  (526) 
CHEMBL3228459

>  <target_organism>  (526) 
Homo sapiens

>  <standard_units>  (526) 
nM

>  <record_id>  (526) 
2078404

>  <document_chembl_id>  (526) 
CHEMBL3227969

>  <bao_format>  (526) 
BAO_0000357

>  <data_validity_description>  (526) 
None

>  <activity_id>  (526) 
14556841

>  <standard_type>  (526) 
IC50

>  <target_chembl_id>  (526) 
CHEMBL202

>  <data_validity_comment>  (526) 
None

>  <published_value>  (526) 
57

>  <document_year>  (526) 
1979

>  <target_pref_name>  (526) 
Dihydrofolate reductase

>  <assay_chembl_id>  (526) 
CHEMBL3231540

>  <standard_relation>  (526) 
=

>  <assay_description>  (526) 
Inhibition of dihydrofolate reductase (unknown origin) using dihydrofolic acid as substrate by spectrophotometry

>  <published_relation>  (526) 
=

>  <standard_value>  (526) 
57000

>  <qudt_units>  (526) 
http://www.openphacts.org/units/Nanomolar

>  <target_tax_id>  (526) 
9606

>  <bao_label>  (526) 
single protein format

>  <published_units>  (526) 
uM

>  <pchembl_value>  (526) 
4.24

>  <published_type>  (526) 
IC50

>  <activity_comment>  (526) 
None

$$$$

     RDKit          

 19 21  0  0  0  0  0  0  0  0999 V2000
    0.0000    0.0000    0.0000 O   0  0  0  0  0  0  0  0  0  0  0  0
    0.0000    0.0000    0.0000 C   0  0  0  0  0  0  0  0  0  0  0  0
    0.0000    0.0000    0.0000 N   0  0  0  0  0  0  0  0  0  0  0  0
    0.0000    0.0000    0.0000 C   0  0  0  0  0  0  0  0  0  0  0  0
    0.0000    0.0000    0.0000 N   0  0  0  0  0  0  0  0  0  0  0  0
    0.0000    0.0000    0.0000 C   0  0  0  0  0  0  0  0  0  0  0  0
    0.0000    0.0000    0.0000 C   0  0  0  0  0  0  0  0  0  0  0  0
    0.0000    0.0000    0.0000 O   0  0  0  0  0  0  0  0  0  0  0  0
    0.0000    0.0000    0.0000 N   0  0  0  0  0  0  0  0  0  0  0  0
    0.0000    0.0000    0.0000 C   0  0  0  0  0  0  0  0  0  0  0  0
    0.0000    0.0000    0.0000 C   0  0  0  0  0  0  0  0  0  0  0  0
    0.0000    0.0000    0.0000 C   0  0  0  0  0  0  0  0  0  0  0  0
    0.0000    0.0000    0.0000 C   0  0  0  0  0  0  0  0  0  0  0  0
    0.0000    0.0000    0.0000 N   0  0  0  0  0  0  0  0  0  0  0  0
    0.0000    0.0000    0.0000 C   0  0  0  0  0  0  0  0  0  0  0  0
    0.0000    0.0000    0.0000 C   0  0  0  0  0  0  0  0  0  0  0  0
    0.0000    0.0000    0.0000 C   0  0  0  0  0  0  0  0  0  0  0  0
    0.0000    0.0000    0.0000 C   0  0  0  0  0  0  0  0  0  0  0  0
    0.0000    0.0000    0.0000 C   0  0  0  0  0  0  0  0  0  0  0  0
  1  2  2  0
  2  3  1  0
  2  4  1  0
  4  5  1  0
  6  4  2  0
  5  7  2  0
  8  6  1  0
  6  9  1  0
  7 10  1  0
  7 11  1  0
 11  8  1  0
  9 12  2  0
 10 13  1  0
 14 12  1  0
 12  3  1  0
 13 15  2  0
 16 13  1  0
 15 17  1  0
 18 16  2  0
 17 19  2  0
 19 18  1  0
M  END
>  <pIC50>  (527) 
4.55

>  <ChEMBL_ID>  (527) 
CHEMBL3228461

>  <document_journal>  (527) 
J. Med. Chem.

>  <bao_endpoint>  (527) 
BAO_0000190

>  <potential_duplicate>  (527) 
False

>  <uo_units>  (527) 
UO_0000065

>  <canonical_smiles>  (527) 
Nc1nc(O)c2N=C(Cc3ccccc3)COc2n1

>  <parent_molecule_chembl_id>  (527) 
CHEMBL3228461

>  <assay_type>  (527) 
B

>  <src_id>  (527) 
1

>  <ligand_efficiency>  (527) 
{u'le': u'0.33', u'bei': u'17.77', u'sei': u'4.86', u'lle': u'2.62'}

>  <standard_flag>  (527) 
True

>  <molecule_chembl_id>  (527) 
CHEMBL3228461

>  <target_organism>  (527) 
Homo sapiens

>  <standard_units>  (527) 
nM

>  <record_id>  (527) 
2078406

>  <document_chembl_id>  (527) 
CHEMBL3227969

>  <bao_format>  (527) 
BAO_0000357

>  <data_validity_description>  (527) 
None

>  <activity_id>  (527) 
14556843

>  <standard_type>  (527) 
IC50

>  <target_chembl_id>  (527) 
CHEMBL202

>  <data_validity_comment>  (527) 
None

>  <published_value>  (527) 
28

>  <document_year>  (527) 
1979

>  <target_pref_name>  (527) 
Dihydrofolate reductase

>  <assay_chembl_id>  (527) 
CHEMBL3231540

>  <standard_relation>  (527) 
=

>  <assay_description>  (527) 
Inhibition of dihydrofolate reductase (unknown origin) using dihydrofolic acid as substrate by spectrophotometry

>  <published_relation>  (527) 
=

>  <standard_value>  (527) 
28000

>  <qudt_units>  (527) 
http://www.openphacts.org/units/Nanomolar

>  <target_tax_id>  (527) 
9606

>  <bao_label>  (527) 
single protein format

>  <published_units>  (527) 
uM

>  <pchembl_value>  (527) 
4.55

>  <published_type>  (527) 
IC50

>  <activity_comment>  (527) 
None

$$$$

     RDKit          

 20 22  0  0  0  0  0  0  0  0999 V2000
    0.0000    0.0000    0.0000 O   0  0  0  0  0  0  0  0  0  0  0  0
    0.0000    0.0000    0.0000 C   0  0  0  0  0  0  0  0  0  0  0  0
    0.0000    0.0000    0.0000 N   0  0  0  0  0  0  0  0  0  0  0  0
    0.0000    0.0000    0.0000 C   0  0  0  0  0  0  0  0  0  0  0  0
    0.0000    0.0000    0.0000 N   0  0  0  0  0  0  0  0  0  0  0  0
    0.0000    0.0000    0.0000 C   0  0  0  0  0  0  0  0  0  0  0  0
    0.0000    0.0000    0.0000 C   0  0  0  0  0  0  0  0  0  0  0  0
    0.0000    0.0000    0.0000 O   0  0  0  0  0  0  0  0  0  0  0  0
    0.0000    0.0000    0.0000 N   0  0  0  0  0  0  0  0  0  0  0  0
    0.0000    0.0000    0.0000 C   0  0  0  0  0  0  0  0  0  0  0  0
    0.0000    0.0000    0.0000 C   0  0  0  0  0  0  0  0  0  0  0  0
    0.0000    0.0000    0.0000 C   0  0  0  0  0  0  0  0  0  0  0  0
    0.0000    0.0000    0.0000 C   0  0  0  0  0  0  0  0  0  0  0  0
    0.0000    0.0000    0.0000 N   0  0  0  0  0  0  0  0  0  0  0  0
    0.0000    0.0000    0.0000 C   0  0  0  0  0  0  0  0  0  0  0  0
    0.0000    0.0000    0.0000 C   0  0  0  0  0  0  0  0  0  0  0  0
    0.0000    0.0000    0.0000 C   0  0  0  0  0  0  0  0  0  0  0  0
    0.0000    0.0000    0.0000 C   0  0  0  0  0  0  0  0  0  0  0  0
    0.0000    0.0000    0.0000 C   0  0  0  0  0  0  0  0  0  0  0  0
    0.0000    0.0000    0.0000 C   0  0  0  0  0  0  0  0  0  0  0  0
  1  2  2  0
  2  3  1  0
  2  4  1  0
  4  5  1  0
  6  4  2  0
  5  7  2  0
  8  6  1  0
  6  9  1  0
  7 10  1  0
  7 11  1  0
 11  8  1  0
  9 12  2  0
 10 13  1  0
 14 12  1  0
 12  3  1  0
 13 15  1  0
 15 16  2  0
 17 15  1  0
 16 18  1  0
 19 17  2  0
 18 20  2  0
 20 19  1  0
M  END
>  <pIC50>  (528) 
5.52

>  <ChEMBL_ID>  (528) 
CHEMBL3228462

>  <document_journal>  (528) 
J. Med. Chem.

>  <bao_endpoint>  (528) 
BAO_0000190

>  <potential_duplicate>  (528) 
False

>  <uo_units>  (528) 
UO_0000065

>  <canonical_smiles>  (528) 
Nc1nc(O)c2N=C(CCc3ccccc3)COc2n1

>  <parent_molecule_chembl_id>  (528) 
CHEMBL3228462

>  <assay_type>  (528) 
B

>  <src_id>  (528) 
1

>  <ligand_efficiency>  (528) 
{u'le': u'0.38', u'bei': u'20.43', u'sei': u'5.9', u'lle': u'3.13'}

>  <standard_flag>  (528) 
True

>  <molecule_chembl_id>  (528) 
CHEMBL3228462

>  <target_organism>  (528) 
Homo sapiens

>  <standard_units>  (528) 
nM

>  <record_id>  (528) 
2078407

>  <document_chembl_id>  (528) 
CHEMBL3227969

>  <bao_format>  (528) 
BAO_0000357

>  <data_validity_description>  (528) 
None

>  <activity_id>  (528) 
14556844

>  <standard_type>  (528) 
IC50

>  <target_chembl_id>  (528) 
CHEMBL202

>  <data_validity_comment>  (528) 
None

>  <published_value>  (528) 
3

>  <document_year>  (528) 
1979

>  <target_pref_name>  (528) 
Dihydrofolate reductase

>  <assay_chembl_id>  (528) 
CHEMBL3231540

>  <standard_relation>  (528) 
=

>  <assay_description>  (528) 
Inhibition of dihydrofolate reductase (unknown origin) using dihydrofolic acid as substrate by spectrophotometry

>  <published_relation>  (528) 
=

>  <standard_value>  (528) 
3000

>  <qudt_units>  (528) 
http://www.openphacts.org/units/Nanomolar

>  <target_tax_id>  (528) 
9606

>  <bao_label>  (528) 
single protein format

>  <published_units>  (528) 
uM

>  <pchembl_value>  (528) 
5.52

>  <published_type>  (528) 
IC50

>  <activity_comment>  (528) 
None

$$$$

     RDKit          

 21 23  0  0  0  0  0  0  0  0999 V2000
    0.0000    0.0000    0.0000 O   0  0  0  0  0  0  0  0  0  0  0  0
    0.0000    0.0000    0.0000 C   0  0  0  0  0  0  0  0  0  0  0  0
    0.0000    0.0000    0.0000 N   0  0  0  0  0  0  0  0  0  0  0  0
    0.0000    0.0000    0.0000 C   0  0  0  0  0  0  0  0  0  0  0  0
    0.0000    0.0000    0.0000 N   0  0  0  0  0  0  0  0  0  0  0  0
    0.0000    0.0000    0.0000 C   0  0  0  0  0  0  0  0  0  0  0  0
    0.0000    0.0000    0.0000 C   0  0  0  0  0  0  0  0  0  0  0  0
    0.0000    0.0000    0.0000 O   0  0  0  0  0  0  0  0  0  0  0  0
    0.0000    0.0000    0.0000 N   0  0  0  0  0  0  0  0  0  0  0  0
    0.0000    0.0000    0.0000 C   0  0  0  0  0  0  0  0  0  0  0  0
    0.0000    0.0000    0.0000 C   0  0  0  0  0  0  0  0  0  0  0  0
    0.0000    0.0000    0.0000 C   0  0  0  0  0  0  0  0  0  0  0  0
    0.0000    0.0000    0.0000 C   0  0  0  0  0  0  0  0  0  0  0  0
    0.0000    0.0000    0.0000 N   0  0  0  0  0  0  0  0  0  0  0  0
    0.0000    0.0000    0.0000 C   0  0  0  0  0  0  0  0  0  0  0  0
    0.0000    0.0000    0.0000 C   0  0  0  0  0  0  0  0  0  0  0  0
    0.0000    0.0000    0.0000 C   0  0  0  0  0  0  0  0  0  0  0  0
    0.0000    0.0000    0.0000 C   0  0  0  0  0  0  0  0  0  0  0  0
    0.0000    0.0000    0.0000 C   0  0  0  0  0  0  0  0  0  0  0  0
    0.0000    0.0000    0.0000 C   0  0  0  0  0  0  0  0  0  0  0  0
    0.0000    0.0000    0.0000 C   0  0  0  0  0  0  0  0  0  0  0  0
  1  2  2  0
  2  3  1  0
  2  4  1  0
  4  5  1  0
  6  4  2  0
  5  7  2  0
  8  6  1  0
  6  9  1  0
  7 10  1  0
  7 11  1  0
 11  8  1  0
  9 12  2  0
 10 13  1  0
 14 12  1  0
 12  3  1  0
 13 15  1  0
 15 16  1  0
 16 17  2  0
 18 16  1  0
 17 19  1  0
 20 18  2  0
 19 21  2  0
 21 20  1  0
M  END
>  <pIC50>  (529) 
5.16

>  <ChEMBL_ID>  (529) 
CHEMBL3228463

>  <document_journal>  (529) 
J. Med. Chem.

>  <bao_endpoint>  (529) 
BAO_0000190

>  <potential_duplicate>  (529) 
False

>  <uo_units>  (529) 
UO_0000065

>  <canonical_smiles>  (529) 
Nc1nc(O)c2N=C(CCCc3ccccc3)COc2n1

>  <parent_molecule_chembl_id>  (529) 
CHEMBL3228463

>  <assay_type>  (529) 
B

>  <src_id>  (529) 
1

>  <ligand_efficiency>  (529) 
{u'le': u'0.34', u'bei': u'18.13', u'sei': u'5.51', u'lle': u'2.3'}

>  <standard_flag>  (529) 
True

>  <molecule_chembl_id>  (529) 
CHEMBL3228463

>  <target_organism>  (529) 
Homo sapiens

>  <standard_units>  (529) 
nM

>  <record_id>  (529) 
2078408

>  <document_chembl_id>  (529) 
CHEMBL3227969

>  <bao_format>  (529) 
BAO_0000357

>  <data_validity_description>  (529) 
None

>  <activity_id>  (529) 
14556845

>  <standard_type>  (529) 
IC50

>  <target_chembl_id>  (529) 
CHEMBL202

>  <data_validity_comment>  (529) 
None

>  <published_value>  (529) 
7

>  <document_year>  (529) 
1979

>  <target_pref_name>  (529) 
Dihydrofolate reductase

>  <assay_chembl_id>  (529) 
CHEMBL3231540

>  <standard_relation>  (529) 
=

>  <assay_description>  (529) 
Inhibition of dihydrofolate reductase (unknown origin) using dihydrofolic acid as substrate by spectrophotometry

>  <published_relation>  (529) 
=

>  <standard_value>  (529) 
7000

>  <qudt_units>  (529) 
http://www.openphacts.org/units/Nanomolar

>  <target_tax_id>  (529) 
9606

>  <bao_label>  (529) 
single protein format

>  <published_units>  (529) 
uM

>  <pchembl_value>  (529) 
5.16

>  <published_type>  (529) 
IC50

>  <activity_comment>  (529) 
None

$$$$

     RDKit          

 22 24  0  0  0  0  0  0  0  0999 V2000
    0.0000    0.0000    0.0000 O   0  0  0  0  0  0  0  0  0  0  0  0
    0.0000    0.0000    0.0000 C   0  0  0  0  0  0  0  0  0  0  0  0
    0.0000    0.0000    0.0000 N   0  0  0  0  0  0  0  0  0  0  0  0
    0.0000    0.0000    0.0000 C   0  0  0  0  0  0  0  0  0  0  0  0
    0.0000    0.0000    0.0000 N   0  0  0  0  0  0  0  0  0  0  0  0
    0.0000    0.0000    0.0000 C   0  0  0  0  0  0  0  0  0  0  0  0
    0.0000    0.0000    0.0000 C   0  0  0  0  0  0  0  0  0  0  0  0
    0.0000    0.0000    0.0000 O   0  0  0  0  0  0  0  0  0  0  0  0
    0.0000    0.0000    0.0000 N   0  0  0  0  0  0  0  0  0  0  0  0
    0.0000    0.0000    0.0000 C   0  0  0  0  0  0  0  0  0  0  0  0
    0.0000    0.0000    0.0000 C   0  0  0  0  0  0  0  0  0  0  0  0
    0.0000    0.0000    0.0000 C   0  0  0  0  0  0  0  0  0  0  0  0
    0.0000    0.0000    0.0000 C   0  0  0  0  0  0  0  0  0  0  0  0
    0.0000    0.0000    0.0000 N   0  0  0  0  0  0  0  0  0  0  0  0
    0.0000    0.0000    0.0000 C   0  0  0  0  0  0  0  0  0  0  0  0
    0.0000    0.0000    0.0000 C   0  0  0  0  0  0  0  0  0  0  0  0
    0.0000    0.0000    0.0000 C   0  0  0  0  0  0  0  0  0  0  0  0
    0.0000    0.0000    0.0000 C   0  0  0  0  0  0  0  0  0  0  0  0
    0.0000    0.0000    0.0000 C   0  0  0  0  0  0  0  0  0  0  0  0
    0.0000    0.0000    0.0000 C   0  0  0  0  0  0  0  0  0  0  0  0
    0.0000    0.0000    0.0000 C   0  0  0  0  0  0  0  0  0  0  0  0
    0.0000    0.0000    0.0000 C   0  0  0  0  0  0  0  0  0  0  0  0
  1  2  2  0
  2  3  1  0
  2  4  1  0
  4  5  1  0
  6  4  2  0
  5  7  2  0
  8  6  1  0
  6  9  1  0
  7 10  1  0
  7 11  1  0
 11  8  1  0
  9 12  2  0
 10 13  1  0
 14 12  1  0
 12  3  1  0
 13 15  1  0
 15 16  1  0
 16 17  1  0
 17 18  2  0
 19 17  1  0
 18 20  1  0
 21 19  2  0
 20 22  2  0
 22 21  1  0
M  END
>  <pIC50>  (530) 
5.1

>  <ChEMBL_ID>  (530) 
CHEMBL3228464

>  <document_journal>  (530) 
J. Med. Chem.

>  <bao_endpoint>  (530) 
BAO_0000190

>  <potential_duplicate>  (530) 
False

>  <uo_units>  (530) 
UO_0000065

>  <canonical_smiles>  (530) 
Nc1nc(O)c2N=C(CCCCc3ccccc3)COc2n1

>  <parent_molecule_chembl_id>  (530) 
CHEMBL3228464

>  <assay_type>  (530) 
B

>  <src_id>  (530) 
1

>  <ligand_efficiency>  (530) 
{u'le': u'0.32', u'bei': u'17.08', u'sei': u'5.44', u'lle': u'1.8'}

>  <standard_flag>  (530) 
True

>  <molecule_chembl_id>  (530) 
CHEMBL3228464

>  <target_organism>  (530) 
Homo sapiens

>  <standard_units>  (530) 
nM

>  <record_id>  (530) 
2078409

>  <document_chembl_id>  (530) 
CHEMBL3227969

>  <bao_format>  (530) 
BAO_0000357

>  <data_validity_description>  (530) 
None

>  <activity_id>  (530) 
14556846

>  <standard_type>  (530) 
IC50

>  <target_chembl_id>  (530) 
CHEMBL202

>  <data_validity_comment>  (530) 
None

>  <published_value>  (530) 
8

>  <document_year>  (530) 
1979

>  <target_pref_name>  (530) 
Dihydrofolate reductase

>  <assay_chembl_id>  (530) 
CHEMBL3231540

>  <standard_relation>  (530) 
=

>  <assay_description>  (530) 
Inhibition of dihydrofolate reductase (unknown origin) using dihydrofolic acid as substrate by spectrophotometry

>  <published_relation>  (530) 
=

>  <standard_value>  (530) 
8000

>  <qudt_units>  (530) 
http://www.openphacts.org/units/Nanomolar

>  <target_tax_id>  (530) 
9606

>  <bao_label>  (530) 
single protein format

>  <published_units>  (530) 
uM

>  <pchembl_value>  (530) 
5.1

>  <published_type>  (530) 
IC50

>  <activity_comment>  (530) 
None

$$$$

     RDKit          

 17 18  0  0  0  0  0  0  0  0999 V2000
    0.0000    0.0000    0.0000 O   0  0  0  0  0  0  0  0  0  0  0  0
    0.0000    0.0000    0.0000 C   0  0  0  0  0  0  0  0  0  0  0  0
    0.0000    0.0000    0.0000 N   0  0  0  0  0  0  0  0  0  0  0  0
    0.0000    0.0000    0.0000 C   0  0  0  0  0  0  0  0  0  0  0  0
    0.0000    0.0000    0.0000 N   0  0  0  0  0  0  0  0  0  0  0  0
    0.0000    0.0000    0.0000 C   0  0  0  0  0  0  0  0  0  0  0  0
    0.0000    0.0000    0.0000 C   0  0  0  0  0  0  0  0  0  0  0  0
    0.0000    0.0000    0.0000 N   0  0  0  0  0  0  0  0  0  0  0  0
    0.0000    0.0000    0.0000 O   0  0  0  0  0  0  0  0  0  0  0  0
    0.0000    0.0000    0.0000 C   0  0  0  0  0  0  0  0  0  0  0  0
    0.0000    0.0000    0.0000 C   0  0  0  0  0  0  0  0  0  0  0  0
    0.0000    0.0000    0.0000 C   0  0  0  0  0  0  0  0  0  0  0  0
    0.0000    0.0000    0.0000 C   0  0  0  0  0  0  0  0  0  0  0  0
    0.0000    0.0000    0.0000 N   0  0  0  0  0  0  0  0  0  0  0  0
    0.0000    0.0000    0.0000 C   0  0  0  0  0  0  0  0  0  0  0  0
    0.0000    0.0000    0.0000 C   0  0  0  0  0  0  0  0  0  0  0  0
    0.0000    0.0000    0.0000 C   0  0  0  0  0  0  0  0  0  0  0  0
  1  2  2  0
  2  3  1  0
  4  2  1  0
  5  4  1  0
  6  4  2  0
  7  5  2  0
  8  6  1  0
  6  9  1  0
 10  7  1  0
 11  7  1  0
 12  8  2  0
  9 11  1  0
 13 10  1  0
  3 12  1  0
 12 14  1  0
 15 13  1  0
 16 15  1  0
 17 16  1  0
M  END
>  <pIC50>  (531) 
4.96

>  <ChEMBL_ID>  (531) 
CHEMBL3228465

>  <document_journal>  (531) 
J. Med. Chem.

>  <bao_endpoint>  (531) 
BAO_0000190

>  <potential_duplicate>  (531) 
False

>  <uo_units>  (531) 
UO_0000065

>  <canonical_smiles>  (531) 
CCCCCC1=Nc2c(O)nc(N)nc2OC1

>  <parent_molecule_chembl_id>  (531) 
CHEMBL3228465

>  <assay_type>  (531) 
B

>  <src_id>  (531) 
1

>  <ligand_efficiency>  (531) 
{u'le': u'0.4', u'bei': u'20.99', u'sei': u'5.3', u'lle': u'2.69'}

>  <standard_flag>  (531) 
True

>  <molecule_chembl_id>  (531) 
CHEMBL3228465

>  <target_organism>  (531) 
Homo sapiens

>  <standard_units>  (531) 
nM

>  <record_id>  (531) 
2078410

>  <document_chembl_id>  (531) 
CHEMBL3227969

>  <bao_format>  (531) 
BAO_0000357

>  <data_validity_description>  (531) 
None

>  <activity_id>  (531) 
14556847

>  <standard_type>  (531) 
IC50

>  <target_chembl_id>  (531) 
CHEMBL202

>  <data_validity_comment>  (531) 
None

>  <published_value>  (531) 
11

>  <document_year>  (531) 
1979

>  <target_pref_name>  (531) 
Dihydrofolate reductase

>  <assay_chembl_id>  (531) 
CHEMBL3231540

>  <standard_relation>  (531) 
=

>  <assay_description>  (531) 
Inhibition of dihydrofolate reductase (unknown origin) using dihydrofolic acid as substrate by spectrophotometry

>  <published_relation>  (531) 
=

>  <standard_value>  (531) 
11000

>  <qudt_units>  (531) 
http://www.openphacts.org/units/Nanomolar

>  <target_tax_id>  (531) 
9606

>  <bao_label>  (531) 
single protein format

>  <published_units>  (531) 
uM

>  <pchembl_value>  (531) 
4.96

>  <published_type>  (531) 
IC50

>  <activity_comment>  (531) 
None

$$$$

     RDKit          

 27 29  0  0  0  0  0  0  0  0999 V2000
    0.0000    0.0000    0.0000 C   0  0  0  0  0  0  0  0  0  0  0  0
    0.0000    0.0000    0.0000 O   0  0  0  0  0  0  0  0  0  0  0  0
    0.0000    0.0000    0.0000 C   0  0  0  0  0  0  0  0  0  0  0  0
    0.0000    0.0000    0.0000 C   0  0  0  0  0  0  0  0  0  0  0  0
    0.0000    0.0000    0.0000 C   0  0  0  0  0  0  0  0  0  0  0  0
    0.0000    0.0000    0.0000 C   0  0  0  0  0  0  0  0  0  0  0  0
    0.0000    0.0000    0.0000 C   0  0  0  0  0  0  0  0  0  0  0  0
    0.0000    0.0000    0.0000 C   0  0  0  0  0  0  0  0  0  0  0  0
    0.0000    0.0000    0.0000 C   0  0  0  0  0  0  0  0  0  0  0  0
    0.0000    0.0000    0.0000 C   0  0  0  0  0  0  0  0  0  0  0  0
    0.0000    0.0000    0.0000 C   0  0  0  0  0  0  0  0  0  0  0  0
    0.0000    0.0000    0.0000 C   0  0  0  0  0  0  0  0  0  0  0  0
    0.0000    0.0000    0.0000 C   0  0  0  0  0  0  0  0  0  0  0  0
    0.0000    0.0000    0.0000 C   0  0  0  0  0  0  0  0  0  0  0  0
    0.0000    0.0000    0.0000 C   0  0  0  0  0  0  0  0  0  0  0  0
    0.0000    0.0000    0.0000 N   0  0  0  0  0  0  0  0  0  0  0  0
    0.0000    0.0000    0.0000 C   0  0  0  0  0  0  0  0  0  0  0  0
    0.0000    0.0000    0.0000 N   0  0  0  0  0  0  0  0  0  0  0  0
    0.0000    0.0000    0.0000 N   0  0  0  0  0  0  0  0  0  0  0  0
    0.0000    0.0000    0.0000 C   0  0  0  0  0  0  0  0  0  0  0  0
    0.0000    0.0000    0.0000 N   0  0  0  0  0  0  0  0  0  0  0  0
    0.0000    0.0000    0.0000 C   0  0  0  0  0  0  0  0  0  0  0  0
    0.0000    0.0000    0.0000 C   0  0  0  0  0  0  0  0  0  0  0  0
    0.0000    0.0000    0.0000 C   0  0  0  0  0  0  0  0  0  0  0  0
    0.0000    0.0000    0.0000 C   0  0  0  0  0  0  0  0  0  0  0  0
    0.0000    0.0000    0.0000 C   0  0  0  0  0  0  0  0  0  0  0  0
    0.0000    0.0000    0.0000 C   0  0  0  0  0  0  0  0  0  0  0  0
  1  2  1  0
  2  3  1  0
  3  4  2  0
  4  5  1  0
  5  6  2  0
  6  7  1  0
  7  8  2  0
  8  9  1  0
  9 10  1  0
  9 11  1  0
 11 12  3  0
 12 13  1  0
 13 14  2  0
 14 15  1  0
 14 16  1  0
 16 17  2  0
 17 18  1  0
 17 19  1  0
 19 20  2  0
 20 21  1  0
  5 22  1  0
 22 23  2  0
 23 24  1  0
 24 25  2  0
 25 26  1  0
 26 27  2  0
  8  3  1  0
 20 13  1  0
 27 22  1  0
M  END
>  <pIC50>  (532) 
6.16

>  <ChEMBL_ID>  (532) 
CHEMBL1270837

>  <document_journal>  (532) 
J. Med. Chem.

>  <bao_endpoint>  (532) 
BAO_0000190

>  <potential_duplicate>  (532) 
False

>  <uo_units>  (532) 
UO_0000065

>  <canonical_smiles>  (532) 
COc1cc(ccc1C(C)C#Cc2c(C)nc(N)nc2N)c3ccccc3

>  <parent_molecule_chembl_id>  (532) 
CHEMBL1270837

>  <assay_type>  (532) 
B

>  <src_id>  (532) 
1

>  <ligand_efficiency>  (532) 
{u'le': u'0.33', u'bei': u'18.05', u'sei': u'7.43', u'lle': u'2.25'}

>  <standard_flag>  (532) 
True

>  <molecule_chembl_id>  (532) 
CHEMBL1270837

>  <target_organism>  (532) 
Homo sapiens

>  <standard_units>  (532) 
nM

>  <record_id>  (532) 
2082637

>  <document_chembl_id>  (532) 
CHEMBL3232887

>  <bao_format>  (532) 
BAO_0000357

>  <data_validity_description>  (532) 
None

>  <activity_id>  (532) 
14598423

>  <standard_type>  (532) 
IC50

>  <target_chembl_id>  (532) 
CHEMBL202

>  <data_validity_comment>  (532) 
None

>  <published_value>  (532) 
340

>  <document_year>  (532) 
2014

>  <target_pref_name>  (532) 
Dihydrofolate reductase

>  <assay_chembl_id>  (532) 
CHEMBL3239992

>  <standard_relation>  (532) 
=

>  <assay_description>  (532) 
Inhibition of human DHFR using dihydrofolate as substrate preincubated for 5 mins followed by substrate addition in presence of NADPH

>  <published_relation>  (532) 
=

>  <standard_value>  (532) 
340

>  <qudt_units>  (532) 
http://www.openphacts.org/units/Nanomolar

>  <target_tax_id>  (532) 
9606

>  <bao_label>  (532) 
single protein format

>  <published_units>  (532) 
nM

>  <pchembl_value>  (532) 
6.47

>  <published_type>  (532) 
IC50

>  <activity_comment>  (532) 
None

$$$$

     RDKit          

 29 31  0  0  0  0  0  0  0  0999 V2000
    0.0000    0.0000    0.0000 C   0  0  0  0  0  0  0  0  0  0  0  0
    0.0000    0.0000    0.0000 O   0  0  0  0  0  0  0  0  0  0  0  0
    0.0000    0.0000    0.0000 C   0  0  0  0  0  0  0  0  0  0  0  0
    0.0000    0.0000    0.0000 C   0  0  0  0  0  0  0  0  0  0  0  0
    0.0000    0.0000    0.0000 C   0  0  0  0  0  0  0  0  0  0  0  0
    0.0000    0.0000    0.0000 C   0  0  0  0  0  0  0  0  0  0  0  0
    0.0000    0.0000    0.0000 O   0  0  0  0  0  0  0  0  0  0  0  0
    0.0000    0.0000    0.0000 C   0  0  0  0  0  0  0  0  0  0  0  0
    0.0000    0.0000    0.0000 C   0  0  0  0  0  0  0  0  0  0  0  0
    0.0000    0.0000    0.0000 C   0  0  0  0  0  0  0  0  0  0  0  0
    0.0000    0.0000    0.0000 C   0  0  0  0  0  0  0  0  0  0  0  0
    0.0000    0.0000    0.0000 C   0  0  0  0  0  0  0  0  0  0  0  0
    0.0000    0.0000    0.0000 C   0  0  0  0  0  0  0  0  0  0  0  0
    0.0000    0.0000    0.0000 C   0  0  0  0  0  0  0  0  0  0  0  0
    0.0000    0.0000    0.0000 C   0  0  0  0  0  0  0  0  0  0  0  0
    0.0000    0.0000    0.0000 C   0  0  0  0  0  0  0  0  0  0  0  0
    0.0000    0.0000    0.0000 C   0  0  0  0  0  0  0  0  0  0  0  0
    0.0000    0.0000    0.0000 N   0  0  0  0  0  0  0  0  0  0  0  0
    0.0000    0.0000    0.0000 C   0  0  0  0  0  0  0  0  0  0  0  0
    0.0000    0.0000    0.0000 N   0  0  0  0  0  0  0  0  0  0  0  0
    0.0000    0.0000    0.0000 N   0  0  0  0  0  0  0  0  0  0  0  0
    0.0000    0.0000    0.0000 C   0  0  0  0  0  0  0  0  0  0  0  0
    0.0000    0.0000    0.0000 N   0  0  0  0  0  0  0  0  0  0  0  0
    0.0000    0.0000    0.0000 C   0  0  0  0  0  0  0  0  0  0  0  0
    0.0000    0.0000    0.0000 C   0  0  0  0  0  0  0  0  0  0  0  0
    0.0000    0.0000    0.0000 C   0  0  0  0  0  0  0  0  0  0  0  0
    0.0000    0.0000    0.0000 C   0  0  0  0  0  0  0  0  0  0  0  0
    0.0000    0.0000    0.0000 C   0  0  0  0  0  0  0  0  0  0  0  0
    0.0000    0.0000    0.0000 C   0  0  0  0  0  0  0  0  0  0  0  0
  1  2  1  0
  2  3  1  0
  3  4  2  0
  4  5  1  0
  5  6  2  0
  6  7  1  0
  7  8  1  0
  6  9  1  0
  9 10  2  0
 10 11  1  0
 11 12  1  0
 11 13  1  0
 13 14  3  0
 14 15  1  0
 15 16  2  0
 16 17  1  0
 16 18  1  0
 18 19  2  0
 19 20  1  0
 19 21  1  0
 21 22  2  0
 22 23  1  0
  5 24  1  0
 24 25  2  0
 25 26  1  0
 26 27  2  0
 27 28  1  0
 28 29  2  0
 10  3  1  0
 22 15  1  0
 29 24  1  0
M  END
>  <pIC50>  (533) 
6.5

>  <ChEMBL_ID>  (533) 
CHEMBL1270734

>  <document_journal>  (533) 
J. Med. Chem.

>  <bao_endpoint>  (533) 
BAO_0000190

>  <potential_duplicate>  (533) 
False

>  <uo_units>  (533) 
UO_0000065

>  <canonical_smiles>  (533) 
COc1cc(c(OC)cc1C(C)C#Cc2c(C)nc(N)nc2N)c3ccccc3

>  <parent_molecule_chembl_id>  (533) 
CHEMBL1270734

>  <assay_type>  (533) 
B

>  <src_id>  (533) 
1

>  <ligand_efficiency>  (533) 
{u'le': u'0.31', u'bei': u'16.74', u'sei': u'6.75', u'lle': u'2.3'}

>  <standard_flag>  (533) 
True

>  <molecule_chembl_id>  (533) 
CHEMBL1270734

>  <target_organism>  (533) 
Homo sapiens

>  <standard_units>  (533) 
nM

>  <record_id>  (533) 
2082640

>  <document_chembl_id>  (533) 
CHEMBL3232887

>  <bao_format>  (533) 
BAO_0000357

>  <data_validity_description>  (533) 
None

>  <activity_id>  (533) 
14598425

>  <standard_type>  (533) 
IC50

>  <target_chembl_id>  (533) 
CHEMBL202

>  <data_validity_comment>  (533) 
None

>  <published_value>  (533) 
314

>  <document_year>  (533) 
2014

>  <target_pref_name>  (533) 
Dihydrofolate reductase

>  <assay_chembl_id>  (533) 
CHEMBL3239992

>  <standard_relation>  (533) 
=

>  <assay_description>  (533) 
Inhibition of human DHFR using dihydrofolate as substrate preincubated for 5 mins followed by substrate addition in presence of NADPH

>  <published_relation>  (533) 
=

>  <standard_value>  (533) 
314

>  <qudt_units>  (533) 
http://www.openphacts.org/units/Nanomolar

>  <target_tax_id>  (533) 
9606

>  <bao_label>  (533) 
single protein format

>  <published_units>  (533) 
nM

>  <pchembl_value>  (533) 
6.5

>  <published_type>  (533) 
IC50

>  <activity_comment>  (533) 
None

$$$$

     RDKit          

 28 30  0  0  0  0  0  0  0  0999 V2000
    0.0000    0.0000    0.0000 C   0  0  0  0  0  0  0  0  0  0  0  0
    0.0000    0.0000    0.0000 C   0  0  0  0  0  0  0  0  0  0  0  0
    0.0000    0.0000    0.0000 C   0  0  0  0  0  0  0  0  0  0  0  0
    0.0000    0.0000    0.0000 N   0  0  0  0  0  0  0  0  0  0  0  0
    0.0000    0.0000    0.0000 C   0  0  0  0  0  0  0  0  0  0  0  0
    0.0000    0.0000    0.0000 N   0  0  0  0  0  0  0  0  0  0  0  0
    0.0000    0.0000    0.0000 N   0  0  0  0  0  0  0  0  0  0  0  0
    0.0000    0.0000    0.0000 C   0  0  0  0  0  0  0  0  0  0  0  0
    0.0000    0.0000    0.0000 N   0  0  0  0  0  0  0  0  0  0  0  0
    0.0000    0.0000    0.0000 C   0  0  0  0  0  0  0  0  0  0  0  0
    0.0000    0.0000    0.0000 C   0  0  0  0  0  0  0  0  0  0  0  0
    0.0000    0.0000    0.0000 C   0  0  0  0  0  0  0  0  0  0  0  0
    0.0000    0.0000    0.0000 C   0  0  0  0  0  0  0  0  0  0  0  0
    0.0000    0.0000    0.0000 C   0  0  0  0  0  0  0  0  0  0  0  0
    0.0000    0.0000    0.0000 C   0  0  0  0  0  0  0  0  0  0  0  0
    0.0000    0.0000    0.0000 C   0  0  0  0  0  0  0  0  0  0  0  0
    0.0000    0.0000    0.0000 C   0  0  0  0  0  0  0  0  0  0  0  0
    0.0000    0.0000    0.0000 C   0  0  0  0  0  0  0  0  0  0  0  0
    0.0000    0.0000    0.0000 C   0  0  0  0  0  0  0  0  0  0  0  0
    0.0000    0.0000    0.0000 C   0  0  0  0  0  0  0  0  0  0  0  0
    0.0000    0.0000    0.0000 O   0  0  0  0  0  0  0  0  0  0  0  0
    0.0000    0.0000    0.0000 C   0  0  0  0  0  0  0  0  0  0  0  0
    0.0000    0.0000    0.0000 C   0  0  0  0  0  0  0  0  0  0  0  0
    0.0000    0.0000    0.0000 C   0  0  0  0  0  0  0  0  0  0  0  0
    0.0000    0.0000    0.0000 C   0  0  0  0  0  0  0  0  0  0  0  0
    0.0000    0.0000    0.0000 C   0  0  0  0  0  0  0  0  0  0  0  0
    0.0000    0.0000    0.0000 C   0  0  0  0  0  0  0  0  0  0  0  0
    0.0000    0.0000    0.0000 C   0  0  0  0  0  0  0  0  0  0  0  0
  1  2  1  0
  2  3  1  0
  3  4  2  0
  4  5  1  0
  5  6  1  0
  5  7  2  0
  7  8  1  0
  8  9  1  0
  8 10  2  0
 10 11  1  0
 11 12  3  0
 12 13  1  0
 13 14  1  0
 13 15  1  0
 15 16  2  0
 16 17  1  0
 17 18  2  0
 18 19  1  0
 19 20  2  0
 20 21  1  0
 21 22  1  0
 18 23  1  0
 23 24  2  0
 24 25  1  0
 25 26  2  0
 26 27  1  0
 27 28  2  0
 10  3  1  0
 20 15  1  0
 28 23  1  0
M  END
>  <pIC50>  (534) 
6.76

>  <ChEMBL_ID>  (534) 
CHEMBL3234116

>  <document_journal>  (534) 
J. Med. Chem.

>  <bao_endpoint>  (534) 
BAO_0000190

>  <potential_duplicate>  (534) 
False

>  <uo_units>  (534) 
UO_0000065

>  <canonical_smiles>  (534) 
CCc1nc(N)nc(N)c1C#CC(C)c2ccc(cc2OC)c3ccccc3

>  <parent_molecule_chembl_id>  (534) 
CHEMBL3234116

>  <assay_type>  (534) 
B

>  <src_id>  (534) 
1

>  <ligand_efficiency>  (534) 
{u'le': u'0.33', u'bei': u'18.16', u'sei': u'7.77', u'lle': u'1.87'}

>  <standard_flag>  (534) 
True

>  <molecule_chembl_id>  (534) 
CHEMBL3234116

>  <target_organism>  (534) 
Homo sapiens

>  <standard_units>  (534) 
nM

>  <record_id>  (534) 
2082641

>  <document_chembl_id>  (534) 
CHEMBL3232887

>  <bao_format>  (534) 
BAO_0000357

>  <data_validity_description>  (534) 
None

>  <activity_id>  (534) 
14598426

>  <standard_type>  (534) 
IC50

>  <target_chembl_id>  (534) 
CHEMBL202

>  <data_validity_comment>  (534) 
None

>  <published_value>  (534) 
172

>  <document_year>  (534) 
2014

>  <target_pref_name>  (534) 
Dihydrofolate reductase

>  <assay_chembl_id>  (534) 
CHEMBL3239992

>  <standard_relation>  (534) 
=

>  <assay_description>  (534) 
Inhibition of human DHFR using dihydrofolate as substrate preincubated for 5 mins followed by substrate addition in presence of NADPH

>  <published_relation>  (534) 
=

>  <standard_value>  (534) 
172

>  <qudt_units>  (534) 
http://www.openphacts.org/units/Nanomolar

>  <target_tax_id>  (534) 
9606

>  <bao_label>  (534) 
single protein format

>  <published_units>  (534) 
nM

>  <pchembl_value>  (534) 
6.76

>  <published_type>  (534) 
IC50

>  <activity_comment>  (534) 
None

$$$$

     RDKit          

 28 30  0  0  0  0  0  0  0  0999 V2000
    0.0000    0.0000    0.0000 C   0  0  0  0  0  0  0  0  0  0  0  0
    0.0000    0.0000    0.0000 C   0  0  0  0  0  0  0  0  0  0  0  0
    0.0000    0.0000    0.0000 C   0  0  0  0  0  0  0  0  0  0  0  0
    0.0000    0.0000    0.0000 N   0  0  0  0  0  0  0  0  0  0  0  0
    0.0000    0.0000    0.0000 C   0  0  0  0  0  0  0  0  0  0  0  0
    0.0000    0.0000    0.0000 N   0  0  0  0  0  0  0  0  0  0  0  0
    0.0000    0.0000    0.0000 N   0  0  0  0  0  0  0  0  0  0  0  0
    0.0000    0.0000    0.0000 C   0  0  0  0  0  0  0  0  0  0  0  0
    0.0000    0.0000    0.0000 N   0  0  0  0  0  0  0  0  0  0  0  0
    0.0000    0.0000    0.0000 C   0  0  0  0  0  0  0  0  0  0  0  0
    0.0000    0.0000    0.0000 C   0  0  0  0  0  0  0  0  0  0  0  0
    0.0000    0.0000    0.0000 C   0  0  0  0  0  0  0  0  0  0  0  0
    0.0000    0.0000    0.0000 C   0  0  0  0  0  0  0  0  0  0  0  0
    0.0000    0.0000    0.0000 C   0  0  0  0  0  0  0  0  0  0  0  0
    0.0000    0.0000    0.0000 C   0  0  0  0  0  0  0  0  0  0  0  0
    0.0000    0.0000    0.0000 C   0  0  0  0  0  0  0  0  0  0  0  0
    0.0000    0.0000    0.0000 C   0  0  0  0  0  0  0  0  0  0  0  0
    0.0000    0.0000    0.0000 C   0  0  0  0  0  0  0  0  0  0  0  0
    0.0000    0.0000    0.0000 C   0  0  0  0  0  0  0  0  0  0  0  0
    0.0000    0.0000    0.0000 C   0  0  0  0  0  0  0  0  0  0  0  0
    0.0000    0.0000    0.0000 O   0  0  0  0  0  0  0  0  0  0  0  0
    0.0000    0.0000    0.0000 C   0  0  0  0  0  0  0  0  0  0  0  0
    0.0000    0.0000    0.0000 C   0  0  0  0  0  0  0  0  0  0  0  0
    0.0000    0.0000    0.0000 C   0  0  0  0  0  0  0  0  0  0  0  0
    0.0000    0.0000    0.0000 C   0  0  0  0  0  0  0  0  0  0  0  0
    0.0000    0.0000    0.0000 N   0  0  0  0  0  0  0  0  0  0  0  0
    0.0000    0.0000    0.0000 C   0  0  0  0  0  0  0  0  0  0  0  0
    0.0000    0.0000    0.0000 C   0  0  0  0  0  0  0  0  0  0  0  0
  1  2  1  0
  2  3  1  0
  3  4  2  0
  4  5  1  0
  5  6  1  0
  5  7  2  0
  7  8  1  0
  8  9  1  0
  8 10  2  0
 10 11  1  0
 11 12  3  0
 12 13  1  0
 13 14  1  0
 13 15  1  0
 15 16  2  0
 16 17  1  0
 17 18  2  0
 18 19  1  0
 19 20  2  0
 20 21  1  0
 21 22  1  0
 18 23  1  0
 23 24  2  0
 24 25  1  0
 25 26  2  0
 26 27  1  0
 27 28  2  0
 10  3  1  0
 20 15  1  0
 28 23  1  0
M  END
>  <pIC50>  (535) 
6.9

>  <ChEMBL_ID>  (535) 
CHEMBL3234117

>  <document_journal>  (535) 
J. Med. Chem.

>  <bao_endpoint>  (535) 
BAO_0000190

>  <potential_duplicate>  (535) 
False

>  <uo_units>  (535) 
UO_0000065

>  <canonical_smiles>  (535) 
CCc1nc(N)nc(N)c1C#CC(C)c2ccc(cc2OC)c3ccncc3

>  <parent_molecule_chembl_id>  (535) 
CHEMBL3234117

>  <assay_type>  (535) 
B

>  <src_id>  (535) 
1

>  <ligand_efficiency>  (535) 
{u'le': u'0.34', u'bei': u'18.47', u'sei': u'6.9', u'lle': u'3.16'}

>  <standard_flag>  (535) 
True

>  <molecule_chembl_id>  (535) 
CHEMBL3234117

>  <target_organism>  (535) 
Homo sapiens

>  <standard_units>  (535) 
nM

>  <record_id>  (535) 
2082642

>  <document_chembl_id>  (535) 
CHEMBL3232887

>  <bao_format>  (535) 
BAO_0000357

>  <data_validity_description>  (535) 
None

>  <activity_id>  (535) 
14598427

>  <standard_type>  (535) 
IC50

>  <target_chembl_id>  (535) 
CHEMBL202

>  <data_validity_comment>  (535) 
None

>  <published_value>  (535) 
127

>  <document_year>  (535) 
2014

>  <target_pref_name>  (535) 
Dihydrofolate reductase

>  <assay_chembl_id>  (535) 
CHEMBL3239992

>  <standard_relation>  (535) 
=

>  <assay_description>  (535) 
Inhibition of human DHFR using dihydrofolate as substrate preincubated for 5 mins followed by substrate addition in presence of NADPH

>  <published_relation>  (535) 
=

>  <standard_value>  (535) 
127

>  <qudt_units>  (535) 
http://www.openphacts.org/units/Nanomolar

>  <target_tax_id>  (535) 
9606

>  <bao_label>  (535) 
single protein format

>  <published_units>  (535) 
nM

>  <pchembl_value>  (535) 
6.9

>  <published_type>  (535) 
IC50

>  <activity_comment>  (535) 
None

$$$$

     RDKit          

 29 31  0  0  0  0  0  0  0  0999 V2000
    0.0000    0.0000    0.0000 C   0  0  0  0  0  0  0  0  0  0  0  0
    0.0000    0.0000    0.0000 C   0  0  0  0  0  0  0  0  0  0  0  0
    0.0000    0.0000    0.0000 C   0  0  0  0  0  0  0  0  0  0  0  0
    0.0000    0.0000    0.0000 N   0  0  0  0  0  0  0  0  0  0  0  0
    0.0000    0.0000    0.0000 C   0  0  0  0  0  0  0  0  0  0  0  0
    0.0000    0.0000    0.0000 N   0  0  0  0  0  0  0  0  0  0  0  0
    0.0000    0.0000    0.0000 N   0  0  0  0  0  0  0  0  0  0  0  0
    0.0000    0.0000    0.0000 C   0  0  0  0  0  0  0  0  0  0  0  0
    0.0000    0.0000    0.0000 N   0  0  0  0  0  0  0  0  0  0  0  0
    0.0000    0.0000    0.0000 C   0  0  0  0  0  0  0  0  0  0  0  0
    0.0000    0.0000    0.0000 C   0  0  0  0  0  0  0  0  0  0  0  0
    0.0000    0.0000    0.0000 C   0  0  0  0  0  0  0  0  0  0  0  0
    0.0000    0.0000    0.0000 C   0  0  0  0  0  0  0  0  0  0  0  0
    0.0000    0.0000    0.0000 C   0  0  0  0  0  0  0  0  0  0  0  0
    0.0000    0.0000    0.0000 C   0  0  0  0  0  0  0  0  0  0  0  0
    0.0000    0.0000    0.0000 C   0  0  0  0  0  0  0  0  0  0  0  0
    0.0000    0.0000    0.0000 C   0  0  0  0  0  0  0  0  0  0  0  0
    0.0000    0.0000    0.0000 C   0  0  0  0  0  0  0  0  0  0  0  0
    0.0000    0.0000    0.0000 C   0  0  0  0  0  0  0  0  0  0  0  0
    0.0000    0.0000    0.0000 C   0  0  0  0  0  0  0  0  0  0  0  0
    0.0000    0.0000    0.0000 O   0  0  0  0  0  0  0  0  0  0  0  0
    0.0000    0.0000    0.0000 C   0  0  0  0  0  0  0  0  0  0  0  0
    0.0000    0.0000    0.0000 C   0  0  0  0  0  0  0  0  0  0  0  0
    0.0000    0.0000    0.0000 C   0  0  0  0  0  0  0  0  0  0  0  0
    0.0000    0.0000    0.0000 C   0  0  0  0  0  0  0  0  0  0  0  0
    0.0000    0.0000    0.0000 C   0  0  0  0  0  0  0  0  0  0  0  0
    0.0000    0.0000    0.0000 O   0  0  0  0  0  0  0  0  0  0  0  0
    0.0000    0.0000    0.0000 C   0  0  0  0  0  0  0  0  0  0  0  0
    0.0000    0.0000    0.0000 C   0  0  0  0  0  0  0  0  0  0  0  0
  1  2  1  0
  2  3  1  0
  3  4  2  0
  4  5  1  0
  5  6  1  0
  5  7  2  0
  7  8  1  0
  8  9  1  0
  8 10  2  0
 10 11  1  0
 11 12  3  0
 12 13  1  0
 13 14  1  0
 13 15  1  0
 15 16  2  0
 16 17  1  0
 17 18  2  0
 18 19  1  0
 19 20  2  0
 20 21  1  0
 21 22  1  0
 18 23  1  0
 23 24  2  0
 24 25  1  0
 25 26  2  0
 26 27  1  0
 26 28  1  0
 28 29  2  0
 10  3  1  0
 20 15  1  0
 29 23  1  0
M  END
>  <pIC50>  (536) 
6.87

>  <ChEMBL_ID>  (536) 
CHEMBL3234118

>  <document_journal>  (536) 
J. Med. Chem.

>  <bao_endpoint>  (536) 
BAO_0000190

>  <potential_duplicate>  (536) 
False

>  <uo_units>  (536) 
UO_0000065

>  <canonical_smiles>  (536) 
CCc1nc(N)nc(N)c1C#CC(C)c2ccc(cc2OC)c3ccc(O)cc3

>  <parent_molecule_chembl_id>  (536) 
CHEMBL3234118

>  <assay_type>  (536) 
B

>  <src_id>  (536) 
1

>  <ligand_efficiency>  (536) 
{u'le': u'0.32', u'bei': u'17.68', u'sei': u'6.4', u'lle': u'2.23'}

>  <standard_flag>  (536) 
True

>  <molecule_chembl_id>  (536) 
CHEMBL3234118

>  <target_organism>  (536) 
Homo sapiens

>  <standard_units>  (536) 
nM

>  <record_id>  (536) 
2082643

>  <document_chembl_id>  (536) 
CHEMBL3232887

>  <bao_format>  (536) 
BAO_0000357

>  <data_validity_description>  (536) 
None

>  <activity_id>  (536) 
14598428

>  <standard_type>  (536) 
IC50

>  <target_chembl_id>  (536) 
CHEMBL202

>  <data_validity_comment>  (536) 
None

>  <published_value>  (536) 
136

>  <document_year>  (536) 
2014

>  <target_pref_name>  (536) 
Dihydrofolate reductase

>  <assay_chembl_id>  (536) 
CHEMBL3239992

>  <standard_relation>  (536) 
=

>  <assay_description>  (536) 
Inhibition of human DHFR using dihydrofolate as substrate preincubated for 5 mins followed by substrate addition in presence of NADPH

>  <published_relation>  (536) 
=

>  <standard_value>  (536) 
136

>  <qudt_units>  (536) 
http://www.openphacts.org/units/Nanomolar

>  <target_tax_id>  (536) 
9606

>  <bao_label>  (536) 
single protein format

>  <published_units>  (536) 
nM

>  <pchembl_value>  (536) 
6.87

>  <published_type>  (536) 
IC50

>  <activity_comment>  (536) 
None

$$$$

     RDKit          

 29 31  0  0  0  0  0  0  0  0999 V2000
    0.0000    0.0000    0.0000 C   0  0  0  0  0  0  0  0  0  0  0  0
    0.0000    0.0000    0.0000 C   0  0  0  0  0  0  0  0  0  0  0  0
    0.0000    0.0000    0.0000 C   0  0  0  0  0  0  0  0  0  0  0  0
    0.0000    0.0000    0.0000 N   0  0  0  0  0  0  0  0  0  0  0  0
    0.0000    0.0000    0.0000 C   0  0  0  0  0  0  0  0  0  0  0  0
    0.0000    0.0000    0.0000 N   0  0  0  0  0  0  0  0  0  0  0  0
    0.0000    0.0000    0.0000 N   0  0  0  0  0  0  0  0  0  0  0  0
    0.0000    0.0000    0.0000 C   0  0  0  0  0  0  0  0  0  0  0  0
    0.0000    0.0000    0.0000 N   0  0  0  0  0  0  0  0  0  0  0  0
    0.0000    0.0000    0.0000 C   0  0  0  0  0  0  0  0  0  0  0  0
    0.0000    0.0000    0.0000 C   0  0  0  0  0  0  0  0  0  0  0  0
    0.0000    0.0000    0.0000 C   0  0  0  0  0  0  0  0  0  0  0  0
    0.0000    0.0000    0.0000 C   0  0  0  0  0  0  0  0  0  0  0  0
    0.0000    0.0000    0.0000 C   0  0  0  0  0  0  0  0  0  0  0  0
    0.0000    0.0000    0.0000 C   0  0  0  0  0  0  0  0  0  0  0  0
    0.0000    0.0000    0.0000 C   0  0  0  0  0  0  0  0  0  0  0  0
    0.0000    0.0000    0.0000 C   0  0  0  0  0  0  0  0  0  0  0  0
    0.0000    0.0000    0.0000 C   0  0  0  0  0  0  0  0  0  0  0  0
    0.0000    0.0000    0.0000 C   0  0  0  0  0  0  0  0  0  0  0  0
    0.0000    0.0000    0.0000 C   0  0  0  0  0  0  0  0  0  0  0  0
    0.0000    0.0000    0.0000 O   0  0  0  0  0  0  0  0  0  0  0  0
    0.0000    0.0000    0.0000 C   0  0  0  0  0  0  0  0  0  0  0  0
    0.0000    0.0000    0.0000 C   0  0  0  0  0  0  0  0  0  0  0  0
    0.0000    0.0000    0.0000 C   0  0  0  0  0  0  0  0  0  0  0  0
    0.0000    0.0000    0.0000 C   0  0  0  0  0  0  0  0  0  0  0  0
    0.0000    0.0000    0.0000 C   0  0  0  0  0  0  0  0  0  0  0  0
    0.0000    0.0000    0.0000 C   0  0  0  0  0  0  0  0  0  0  0  0
    0.0000    0.0000    0.0000 C   0  0  0  0  0  0  0  0  0  0  0  0
    0.0000    0.0000    0.0000 C   0  0  0  0  0  0  0  0  0  0  0  0
  1  2  1  0
  2  3  1  0
  3  4  2  0
  4  5  1  0
  5  6  1  0
  5  7  2  0
  7  8  1  0
  8  9  1  0
  8 10  2  0
 10 11  1  0
 11 12  3  0
 12 13  1  0
 13 14  1  0
 13 15  1  0
 15 16  2  0
 16 17  1  0
 17 18  2  0
 18 19  1  0
 19 20  2  0
 20 21  1  0
 21 22  1  0
 18 23  1  0
 23 24  2  0
 24 25  1  0
 25 26  2  0
 26 27  1  0
 26 28  1  0
 28 29  2  0
 10  3  1  0
 20 15  1  0
 29 23  1  0
M  END
>  <pIC50>  (537) 
6.68

>  <ChEMBL_ID>  (537) 
CHEMBL3234119

>  <document_journal>  (537) 
J. Med. Chem.

>  <bao_endpoint>  (537) 
BAO_0000190

>  <potential_duplicate>  (537) 
False

>  <uo_units>  (537) 
UO_0000065

>  <canonical_smiles>  (537) 
CCc1nc(N)nc(N)c1C#CC(C)c2ccc(cc2OC)c3ccc(C)cc3

>  <parent_molecule_chembl_id>  (537) 
CHEMBL3234119

>  <assay_type>  (537) 
B

>  <src_id>  (537) 
1

>  <ligand_efficiency>  (537) 
{u'le': u'0.31', u'bei': u'17.29', u'sei': u'7.68', u'lle': u'1.31'}

>  <standard_flag>  (537) 
True

>  <molecule_chembl_id>  (537) 
CHEMBL3234119

>  <target_organism>  (537) 
Homo sapiens

>  <standard_units>  (537) 
nM

>  <record_id>  (537) 
2082644

>  <document_chembl_id>  (537) 
CHEMBL3232887

>  <bao_format>  (537) 
BAO_0000357

>  <data_validity_description>  (537) 
None

>  <activity_id>  (537) 
14598429

>  <standard_type>  (537) 
IC50

>  <target_chembl_id>  (537) 
CHEMBL202

>  <data_validity_comment>  (537) 
None

>  <published_value>  (537) 
208

>  <document_year>  (537) 
2014

>  <target_pref_name>  (537) 
Dihydrofolate reductase

>  <assay_chembl_id>  (537) 
CHEMBL3239992

>  <standard_relation>  (537) 
=

>  <assay_description>  (537) 
Inhibition of human DHFR using dihydrofolate as substrate preincubated for 5 mins followed by substrate addition in presence of NADPH

>  <published_relation>  (537) 
=

>  <standard_value>  (537) 
208

>  <qudt_units>  (537) 
http://www.openphacts.org/units/Nanomolar

>  <target_tax_id>  (537) 
9606

>  <bao_label>  (537) 
single protein format

>  <published_units>  (537) 
nM

>  <pchembl_value>  (537) 
6.68

>  <published_type>  (537) 
IC50

>  <activity_comment>  (537) 
None

$$$$

     RDKit          

 30 32  0  0  0  0  0  0  0  0999 V2000
    0.0000    0.0000    0.0000 C   0  0  0  0  0  0  0  0  0  0  0  0
    0.0000    0.0000    0.0000 C   0  0  0  0  0  0  0  0  0  0  0  0
    0.0000    0.0000    0.0000 C   0  0  0  0  0  0  0  0  0  0  0  0
    0.0000    0.0000    0.0000 N   0  0  0  0  0  0  0  0  0  0  0  0
    0.0000    0.0000    0.0000 C   0  0  0  0  0  0  0  0  0  0  0  0
    0.0000    0.0000    0.0000 N   0  0  0  0  0  0  0  0  0  0  0  0
    0.0000    0.0000    0.0000 N   0  0  0  0  0  0  0  0  0  0  0  0
    0.0000    0.0000    0.0000 C   0  0  0  0  0  0  0  0  0  0  0  0
    0.0000    0.0000    0.0000 N   0  0  0  0  0  0  0  0  0  0  0  0
    0.0000    0.0000    0.0000 C   0  0  0  0  0  0  0  0  0  0  0  0
    0.0000    0.0000    0.0000 C   0  0  0  0  0  0  0  0  0  0  0  0
    0.0000    0.0000    0.0000 C   0  0  0  0  0  0  0  0  0  0  0  0
    0.0000    0.0000    0.0000 C   0  0  0  0  0  0  0  0  0  0  0  0
    0.0000    0.0000    0.0000 C   0  0  0  0  0  0  0  0  0  0  0  0
    0.0000    0.0000    0.0000 C   0  0  0  0  0  0  0  0  0  0  0  0
    0.0000    0.0000    0.0000 C   0  0  0  0  0  0  0  0  0  0  0  0
    0.0000    0.0000    0.0000 C   0  0  0  0  0  0  0  0  0  0  0  0
    0.0000    0.0000    0.0000 C   0  0  0  0  0  0  0  0  0  0  0  0
    0.0000    0.0000    0.0000 C   0  0  0  0  0  0  0  0  0  0  0  0
    0.0000    0.0000    0.0000 C   0  0  0  0  0  0  0  0  0  0  0  0
    0.0000    0.0000    0.0000 O   0  0  0  0  0  0  0  0  0  0  0  0
    0.0000    0.0000    0.0000 C   0  0  0  0  0  0  0  0  0  0  0  0
    0.0000    0.0000    0.0000 C   0  0  0  0  0  0  0  0  0  0  0  0
    0.0000    0.0000    0.0000 C   0  0  0  0  0  0  0  0  0  0  0  0
    0.0000    0.0000    0.0000 C   0  0  0  0  0  0  0  0  0  0  0  0
    0.0000    0.0000    0.0000 C   0  0  0  0  0  0  0  0  0  0  0  0
    0.0000    0.0000    0.0000 C   0  0  0  0  0  0  0  0  0  0  0  0
    0.0000    0.0000    0.0000 C   0  0  0  0  0  0  0  0  0  0  0  0
    0.0000    0.0000    0.0000 C   0  0  0  0  0  0  0  0  0  0  0  0
    0.0000    0.0000    0.0000 N   0  0  0  0  0  0  0  0  0  0  0  0
  1  2  1  0
  2  3  1  0
  3  4  2  0
  4  5  1  0
  5  6  1  0
  5  7  2  0
  7  8  1  0
  8  9  1  0
  8 10  2  0
 10 11  1  0
 11 12  3  0
 12 13  1  0
 13 14  1  0
 13 15  1  0
 15 16  2  0
 16 17  1  0
 17 18  2  0
 18 19  1  0
 19 20  2  0
 20 21  1  0
 21 22  1  0
 18 23  1  0
 23 24  2  0
 24 25  1  0
 25 26  2  0
 26 27  1  0
 27 28  2  0
 26 29  1  0
 29 30  3  0
 10  3  1  0
 20 15  1  0
 28 23  1  0
M  END
>  <pIC50>  (538) 
6.32

>  <ChEMBL_ID>  (538) 
CHEMBL3234120

>  <document_journal>  (538) 
J. Med. Chem.

>  <bao_endpoint>  (538) 
BAO_0000190

>  <potential_duplicate>  (538) 
False

>  <uo_units>  (538) 
UO_0000065

>  <canonical_smiles>  (538) 
CCc1nc(N)nc(N)c1C#CC(C)c2ccc(cc2OC)c3ccc(cc3)C#N

>  <parent_molecule_chembl_id>  (538) 
CHEMBL3234120

>  <assay_type>  (538) 
B

>  <src_id>  (538) 
1

>  <ligand_efficiency>  (538) 
{u'le': u'0.29', u'bei': u'15.9', u'sei': u'5.7', u'lle': u'1.55'}

>  <standard_flag>  (538) 
True

>  <molecule_chembl_id>  (538) 
CHEMBL3234120

>  <target_organism>  (538) 
Homo sapiens

>  <standard_units>  (538) 
nM

>  <record_id>  (538) 
2082645

>  <document_chembl_id>  (538) 
CHEMBL3232887

>  <bao_format>  (538) 
BAO_0000357

>  <data_validity_description>  (538) 
None

>  <activity_id>  (538) 
14598430

>  <standard_type>  (538) 
IC50

>  <target_chembl_id>  (538) 
CHEMBL202

>  <data_validity_comment>  (538) 
None

>  <published_value>  (538) 
477

>  <document_year>  (538) 
2014

>  <target_pref_name>  (538) 
Dihydrofolate reductase

>  <assay_chembl_id>  (538) 
CHEMBL3239992

>  <standard_relation>  (538) 
=

>  <assay_description>  (538) 
Inhibition of human DHFR using dihydrofolate as substrate preincubated for 5 mins followed by substrate addition in presence of NADPH

>  <published_relation>  (538) 
=

>  <standard_value>  (538) 
477

>  <qudt_units>  (538) 
http://www.openphacts.org/units/Nanomolar

>  <target_tax_id>  (538) 
9606

>  <bao_label>  (538) 
single protein format

>  <published_units>  (538) 
nM

>  <pchembl_value>  (538) 
6.32

>  <published_type>  (538) 
IC50

>  <activity_comment>  (538) 
None

$$$$

     RDKit          

 32 34  0  0  0  0  0  0  0  0999 V2000
    0.0000    0.0000    0.0000 C   0  0  0  0  0  0  0  0  0  0  0  0
    0.0000    0.0000    0.0000 C   0  0  0  0  0  0  0  0  0  0  0  0
    0.0000    0.0000    0.0000 C   0  0  0  0  0  0  0  0  0  0  0  0
    0.0000    0.0000    0.0000 N   0  0  0  0  0  0  0  0  0  0  0  0
    0.0000    0.0000    0.0000 C   0  0  0  0  0  0  0  0  0  0  0  0
    0.0000    0.0000    0.0000 N   0  0  0  0  0  0  0  0  0  0  0  0
    0.0000    0.0000    0.0000 N   0  0  0  0  0  0  0  0  0  0  0  0
    0.0000    0.0000    0.0000 C   0  0  0  0  0  0  0  0  0  0  0  0
    0.0000    0.0000    0.0000 N   0  0  0  0  0  0  0  0  0  0  0  0
    0.0000    0.0000    0.0000 C   0  0  0  0  0  0  0  0  0  0  0  0
    0.0000    0.0000    0.0000 C   0  0  0  0  0  0  0  0  0  0  0  0
    0.0000    0.0000    0.0000 C   0  0  0  0  0  0  0  0  0  0  0  0
    0.0000    0.0000    0.0000 C   0  0  0  0  0  0  0  0  0  0  0  0
    0.0000    0.0000    0.0000 C   0  0  0  0  0  0  0  0  0  0  0  0
    0.0000    0.0000    0.0000 C   0  0  0  0  0  0  0  0  0  0  0  0
    0.0000    0.0000    0.0000 C   0  0  0  0  0  0  0  0  0  0  0  0
    0.0000    0.0000    0.0000 C   0  0  0  0  0  0  0  0  0  0  0  0
    0.0000    0.0000    0.0000 C   0  0  0  0  0  0  0  0  0  0  0  0
    0.0000    0.0000    0.0000 C   0  0  0  0  0  0  0  0  0  0  0  0
    0.0000    0.0000    0.0000 C   0  0  0  0  0  0  0  0  0  0  0  0
    0.0000    0.0000    0.0000 O   0  0  0  0  0  0  0  0  0  0  0  0
    0.0000    0.0000    0.0000 C   0  0  0  0  0  0  0  0  0  0  0  0
    0.0000    0.0000    0.0000 C   0  0  0  0  0  0  0  0  0  0  0  0
    0.0000    0.0000    0.0000 C   0  0  0  0  0  0  0  0  0  0  0  0
    0.0000    0.0000    0.0000 C   0  0  0  0  0  0  0  0  0  0  0  0
    0.0000    0.0000    0.0000 C   0  0  0  0  0  0  0  0  0  0  0  0
    0.0000    0.0000    0.0000 O   0  0  0  0  0  0  0  0  0  0  0  0
    0.0000    0.0000    0.0000 C   0  0  0  0  0  0  0  0  0  0  0  0
    0.0000    0.0000    0.0000 O   0  0  0  0  0  0  0  0  0  0  0  0
    0.0000    0.0000    0.0000 N   0  0  0  0  0  0  0  0  0  0  0  0
    0.0000    0.0000    0.0000 C   0  0  0  0  0  0  0  0  0  0  0  0
    0.0000    0.0000    0.0000 C   0  0  0  0  0  0  0  0  0  0  0  0
  1  2  1  0
  2  3  1  0
  3  4  2  0
  4  5  1  0
  5  6  1  0
  5  7  2  0
  7  8  1  0
  8  9  1  0
  8 10  2  0
 10 11  1  0
 11 12  3  0
 12 13  1  0
 13 14  1  0
 13 15  1  0
 15 16  2  0
 16 17  1  0
 17 18  2  0
 18 19  1  0
 19 20  2  0
 20 21  1  0
 21 22  1  0
 18 23  1  0
 23 24  2  0
 24 25  1  0
 25 26  2  0
 26 27  1  0
 27 28  1  0
 28 29  2  0
 28 30  1  0
 26 31  1  0
 31 32  2  0
 10  3  1  0
 20 15  1  0
 32 23  1  0
M  END
>  <pIC50>  (539) 
6.77

>  <ChEMBL_ID>  (539) 
CHEMBL3234317

>  <document_journal>  (539) 
J. Med. Chem.

>  <bao_endpoint>  (539) 
BAO_0000190

>  <potential_duplicate>  (539) 
False

>  <uo_units>  (539) 
UO_0000065

>  <canonical_smiles>  (539) 
CCc1nc(N)nc(N)c1C#CC(C)c2ccc(cc2OC)c3ccc(OC(=O)N)cc3

>  <parent_molecule_chembl_id>  (539) 
CHEMBL3234317

>  <assay_type>  (539) 
B

>  <src_id>  (539) 
1

>  <ligand_efficiency>  (539) 
{u'le': u'0.29', u'bei': u'15.69', u'sei': u'4.86', u'lle': u'2.33'}

>  <standard_flag>  (539) 
True

>  <molecule_chembl_id>  (539) 
CHEMBL3234317

>  <target_organism>  (539) 
Homo sapiens

>  <standard_units>  (539) 
nM

>  <record_id>  (539) 
2082914

>  <document_chembl_id>  (539) 
CHEMBL3232887

>  <bao_format>  (539) 
BAO_0000357

>  <data_validity_description>  (539) 
None

>  <activity_id>  (539) 
14598431

>  <standard_type>  (539) 
IC50

>  <target_chembl_id>  (539) 
CHEMBL202

>  <data_validity_comment>  (539) 
None

>  <published_value>  (539) 
170

>  <document_year>  (539) 
2014

>  <target_pref_name>  (539) 
Dihydrofolate reductase

>  <assay_chembl_id>  (539) 
CHEMBL3239992

>  <standard_relation>  (539) 
=

>  <assay_description>  (539) 
Inhibition of human DHFR using dihydrofolate as substrate preincubated for 5 mins followed by substrate addition in presence of NADPH

>  <published_relation>  (539) 
=

>  <standard_value>  (539) 
170

>  <qudt_units>  (539) 
http://www.openphacts.org/units/Nanomolar

>  <target_tax_id>  (539) 
9606

>  <bao_label>  (539) 
single protein format

>  <published_units>  (539) 
nM

>  <pchembl_value>  (539) 
6.77

>  <published_type>  (539) 
IC50

>  <activity_comment>  (539) 
None

$$$$

     RDKit          

 32 34  0  0  0  0  0  0  0  0999 V2000
    0.0000    0.0000    0.0000 C   0  0  0  0  0  0  0  0  0  0  0  0
    0.0000    0.0000    0.0000 C   0  0  0  0  0  0  0  0  0  0  0  0
    0.0000    0.0000    0.0000 C   0  0  0  0  0  0  0  0  0  0  0  0
    0.0000    0.0000    0.0000 N   0  0  0  0  0  0  0  0  0  0  0  0
    0.0000    0.0000    0.0000 C   0  0  0  0  0  0  0  0  0  0  0  0
    0.0000    0.0000    0.0000 N   0  0  0  0  0  0  0  0  0  0  0  0
    0.0000    0.0000    0.0000 N   0  0  0  0  0  0  0  0  0  0  0  0
    0.0000    0.0000    0.0000 C   0  0  0  0  0  0  0  0  0  0  0  0
    0.0000    0.0000    0.0000 N   0  0  0  0  0  0  0  0  0  0  0  0
    0.0000    0.0000    0.0000 C   0  0  0  0  0  0  0  0  0  0  0  0
    0.0000    0.0000    0.0000 C   0  0  0  0  0  0  0  0  0  0  0  0
    0.0000    0.0000    0.0000 C   0  0  0  0  0  0  0  0  0  0  0  0
    0.0000    0.0000    0.0000 C   0  0  0  0  0  0  0  0  0  0  0  0
    0.0000    0.0000    0.0000 C   0  0  0  0  0  0  0  0  0  0  0  0
    0.0000    0.0000    0.0000 C   0  0  0  0  0  0  0  0  0  0  0  0
    0.0000    0.0000    0.0000 C   0  0  0  0  0  0  0  0  0  0  0  0
    0.0000    0.0000    0.0000 C   0  0  0  0  0  0  0  0  0  0  0  0
    0.0000    0.0000    0.0000 C   0  0  0  0  0  0  0  0  0  0  0  0
    0.0000    0.0000    0.0000 C   0  0  0  0  0  0  0  0  0  0  0  0
    0.0000    0.0000    0.0000 C   0  0  0  0  0  0  0  0  0  0  0  0
    0.0000    0.0000    0.0000 O   0  0  0  0  0  0  0  0  0  0  0  0
    0.0000    0.0000    0.0000 C   0  0  0  0  0  0  0  0  0  0  0  0
    0.0000    0.0000    0.0000 C   0  0  0  0  0  0  0  0  0  0  0  0
    0.0000    0.0000    0.0000 C   0  0  0  0  0  0  0  0  0  0  0  0
    0.0000    0.0000    0.0000 C   0  0  0  0  0  0  0  0  0  0  0  0
    0.0000    0.0000    0.0000 C   0  0  0  0  0  0  0  0  0  0  0  0
    0.0000    0.0000    0.0000 C   0  0  0  0  0  0  0  0  0  0  0  0
    0.0000    0.0000    0.0000 C   0  0  0  0  0  0  0  0  0  0  0  0
    0.0000    0.0000    0.0000 C   0  0  0  0  0  0  0  0  0  0  0  0
    0.0000    0.0000    0.0000 O   0  0  0  0  0  0  0  0  0  0  0  0
    0.0000    0.0000    0.0000 O   0  0  0  0  0  0  0  0  0  0  0  0
    0.0000    0.0000    0.0000 C   0  0  0  0  0  0  0  0  0  0  0  0
  1  2  1  0
  2  3  1  0
  3  4  2  0
  4  5  1  0
  5  6  1  0
  5  7  2  0
  7  8  1  0
  8  9  1  0
  8 10  2  0
 10 11  1  0
 11 12  3  0
 12 13  1  0
 13 14  1  0
 13 15  1  0
 15 16  2  0
 16 17  1  0
 17 18  2  0
 18 19  1  0
 19 20  2  0
 20 21  1  0
 21 22  1  0
 18 23  1  0
 23 24  2  0
 24 25  1  0
 25 26  2  0
 26 27  1  0
 27 28  2  0
 26 29  1  0
 29 30  2  0
 29 31  1  0
 31 32  1  0
 10  3  1  0
 20 15  1  0
 28 23  1  0
M  END
>  <pIC50>  (540) 
7.31

>  <ChEMBL_ID>  (540) 
CHEMBL3234318

>  <document_journal>  (540) 
J. Med. Chem.

>  <bao_endpoint>  (540) 
BAO_0000190

>  <potential_duplicate>  (540) 
False

>  <uo_units>  (540) 
UO_0000065

>  <canonical_smiles>  (540) 
CCc1nc(N)nc(N)c1C#CC(C)c2ccc(cc2OC)c3ccc(cc3)C(=O)OC

>  <parent_molecule_chembl_id>  (540) 
CHEMBL3234318

>  <assay_type>  (540) 
B

>  <src_id>  (540) 
1

>  <ligand_efficiency>  (540) 
{u'le': u'0.31', u'bei': u'16.98', u'sei': u'6.45', u'lle': u'2.57'}

>  <standard_flag>  (540) 
True

>  <molecule_chembl_id>  (540) 
CHEMBL3234318

>  <target_organism>  (540) 
Homo sapiens

>  <standard_units>  (540) 
nM

>  <record_id>  (540) 
2082915

>  <document_chembl_id>  (540) 
CHEMBL3232887

>  <bao_format>  (540) 
BAO_0000357

>  <data_validity_description>  (540) 
None

>  <activity_id>  (540) 
14598432

>  <standard_type>  (540) 
IC50

>  <target_chembl_id>  (540) 
CHEMBL202

>  <data_validity_comment>  (540) 
None

>  <published_value>  (540) 
49

>  <document_year>  (540) 
2014

>  <target_pref_name>  (540) 
Dihydrofolate reductase

>  <assay_chembl_id>  (540) 
CHEMBL3239992

>  <standard_relation>  (540) 
=

>  <assay_description>  (540) 
Inhibition of human DHFR using dihydrofolate as substrate preincubated for 5 mins followed by substrate addition in presence of NADPH

>  <published_relation>  (540) 
=

>  <standard_value>  (540) 
49

>  <qudt_units>  (540) 
http://www.openphacts.org/units/Nanomolar

>  <target_tax_id>  (540) 
9606

>  <bao_label>  (540) 
single protein format

>  <published_units>  (540) 
nM

>  <pchembl_value>  (540) 
7.31

>  <published_type>  (540) 
IC50

>  <activity_comment>  (540) 
None

$$$$

     RDKit          

 31 33  0  0  0  0  0  0  0  0999 V2000
    0.0000    0.0000    0.0000 C   0  0  0  0  0  0  0  0  0  0  0  0
    0.0000    0.0000    0.0000 C   0  0  0  0  0  0  0  0  0  0  0  0
    0.0000    0.0000    0.0000 C   0  0  0  0  0  0  0  0  0  0  0  0
    0.0000    0.0000    0.0000 N   0  0  0  0  0  0  0  0  0  0  0  0
    0.0000    0.0000    0.0000 C   0  0  0  0  0  0  0  0  0  0  0  0
    0.0000    0.0000    0.0000 N   0  0  0  0  0  0  0  0  0  0  0  0
    0.0000    0.0000    0.0000 N   0  0  0  0  0  0  0  0  0  0  0  0
    0.0000    0.0000    0.0000 C   0  0  0  0  0  0  0  0  0  0  0  0
    0.0000    0.0000    0.0000 N   0  0  0  0  0  0  0  0  0  0  0  0
    0.0000    0.0000    0.0000 C   0  0  0  0  0  0  0  0  0  0  0  0
    0.0000    0.0000    0.0000 C   0  0  0  0  0  0  0  0  0  0  0  0
    0.0000    0.0000    0.0000 C   0  0  0  0  0  0  0  0  0  0  0  0
    0.0000    0.0000    0.0000 C   0  0  0  0  0  0  0  0  0  0  0  0
    0.0000    0.0000    0.0000 C   0  0  0  0  0  0  0  0  0  0  0  0
    0.0000    0.0000    0.0000 C   0  0  0  0  0  0  0  0  0  0  0  0
    0.0000    0.0000    0.0000 C   0  0  0  0  0  0  0  0  0  0  0  0
    0.0000    0.0000    0.0000 C   0  0  0  0  0  0  0  0  0  0  0  0
    0.0000    0.0000    0.0000 C   0  0  0  0  0  0  0  0  0  0  0  0
    0.0000    0.0000    0.0000 C   0  0  0  0  0  0  0  0  0  0  0  0
    0.0000    0.0000    0.0000 C   0  0  0  0  0  0  0  0  0  0  0  0
    0.0000    0.0000    0.0000 O   0  0  0  0  0  0  0  0  0  0  0  0
    0.0000    0.0000    0.0000 C   0  0  0  0  0  0  0  0  0  0  0  0
    0.0000    0.0000    0.0000 C   0  0  0  0  0  0  0  0  0  0  0  0
    0.0000    0.0000    0.0000 C   0  0  0  0  0  0  0  0  0  0  0  0
    0.0000    0.0000    0.0000 C   0  0  0  0  0  0  0  0  0  0  0  0
    0.0000    0.0000    0.0000 C   0  0  0  0  0  0  0  0  0  0  0  0
    0.0000    0.0000    0.0000 C   0  0  0  0  0  0  0  0  0  0  0  0
    0.0000    0.0000    0.0000 C   0  0  0  0  0  0  0  0  0  0  0  0
    0.0000    0.0000    0.0000 N   0  0  0  0  0  0  0  0  0  0  0  0
    0.0000    0.0000    0.0000 C   0  0  0  0  0  0  0  0  0  0  0  0
    0.0000    0.0000    0.0000 C   0  0  0  0  0  0  0  0  0  0  0  0
  1  2  1  0
  2  3  1  0
  3  4  2  0
  4  5  1  0
  5  6  1  0
  5  7  2  0
  7  8  1  0
  8  9  1  0
  8 10  2  0
 10 11  1  0
 11 12  3  0
 12 13  1  0
 13 14  1  0
 13 15  1  0
 15 16  2  0
 16 17  1  0
 17 18  2  0
 18 19  1  0
 19 20  2  0
 20 21  1  0
 21 22  1  0
 18 23  1  0
 23 24  2  0
 24 25  1  0
 25 26  2  0
 26 27  1  0
 27 28  2  0
 26 29  1  0
 29 30  1  0
 29 31  1  0
 10  3  1  0
 20 15  1  0
 28 23  1  0
M  END
>  <pIC50>  (541) 
6.83

>  <ChEMBL_ID>  (541) 
CHEMBL3234319

>  <document_journal>  (541) 
J. Med. Chem.

>  <bao_endpoint>  (541) 
BAO_0000190

>  <potential_duplicate>  (541) 
False

>  <uo_units>  (541) 
UO_0000065

>  <canonical_smiles>  (541) 
CCc1nc(N)nc(N)c1C#CC(C)c2ccc(cc2OC)c3ccc(cc3)N(C)C

>  <parent_molecule_chembl_id>  (541) 
CHEMBL3234319

>  <assay_type>  (541) 
B

>  <src_id>  (541) 
1

>  <ligand_efficiency>  (541) 
{u'le': u'0.3', u'bei': u'16.44', u'sei': u'7.57', u'lle': u'1.78'}

>  <standard_flag>  (541) 
True

>  <molecule_chembl_id>  (541) 
CHEMBL3234319

>  <target_organism>  (541) 
Homo sapiens

>  <standard_units>  (541) 
nM

>  <record_id>  (541) 
2082916

>  <document_chembl_id>  (541) 
CHEMBL3232887

>  <bao_format>  (541) 
BAO_0000357

>  <data_validity_description>  (541) 
None

>  <activity_id>  (541) 
14598433

>  <standard_type>  (541) 
IC50

>  <target_chembl_id>  (541) 
CHEMBL202

>  <data_validity_comment>  (541) 
None

>  <published_value>  (541) 
147

>  <document_year>  (541) 
2014

>  <target_pref_name>  (541) 
Dihydrofolate reductase

>  <assay_chembl_id>  (541) 
CHEMBL3239992

>  <standard_relation>  (541) 
=

>  <assay_description>  (541) 
Inhibition of human DHFR using dihydrofolate as substrate preincubated for 5 mins followed by substrate addition in presence of NADPH

>  <published_relation>  (541) 
=

>  <standard_value>  (541) 
147

>  <qudt_units>  (541) 
http://www.openphacts.org/units/Nanomolar

>  <target_tax_id>  (541) 
9606

>  <bao_label>  (541) 
single protein format

>  <published_units>  (541) 
nM

>  <pchembl_value>  (541) 
6.83

>  <published_type>  (541) 
IC50

>  <activity_comment>  (541) 
None

$$$$

     RDKit          

 29 31  0  0  0  0  0  0  0  0999 V2000
    0.0000    0.0000    0.0000 C   0  0  0  0  0  0  0  0  0  0  0  0
    0.0000    0.0000    0.0000 C   0  0  0  0  0  0  0  0  0  0  0  0
    0.0000    0.0000    0.0000 C   0  0  0  0  0  0  0  0  0  0  0  0
    0.0000    0.0000    0.0000 N   0  0  0  0  0  0  0  0  0  0  0  0
    0.0000    0.0000    0.0000 C   0  0  0  0  0  0  0  0  0  0  0  0
    0.0000    0.0000    0.0000 N   0  0  0  0  0  0  0  0  0  0  0  0
    0.0000    0.0000    0.0000 N   0  0  0  0  0  0  0  0  0  0  0  0
    0.0000    0.0000    0.0000 C   0  0  0  0  0  0  0  0  0  0  0  0
    0.0000    0.0000    0.0000 N   0  0  0  0  0  0  0  0  0  0  0  0
    0.0000    0.0000    0.0000 C   0  0  0  0  0  0  0  0  0  0  0  0
    0.0000    0.0000    0.0000 C   0  0  0  0  0  0  0  0  0  0  0  0
    0.0000    0.0000    0.0000 C   0  0  0  0  0  0  0  0  0  0  0  0
    0.0000    0.0000    0.0000 C   0  0  0  0  0  0  0  0  0  0  0  0
    0.0000    0.0000    0.0000 C   0  0  0  0  0  0  0  0  0  0  0  0
    0.0000    0.0000    0.0000 C   0  0  0  0  0  0  0  0  0  0  0  0
    0.0000    0.0000    0.0000 C   0  0  0  0  0  0  0  0  0  0  0  0
    0.0000    0.0000    0.0000 C   0  0  0  0  0  0  0  0  0  0  0  0
    0.0000    0.0000    0.0000 C   0  0  0  0  0  0  0  0  0  0  0  0
    0.0000    0.0000    0.0000 C   0  0  0  0  0  0  0  0  0  0  0  0
    0.0000    0.0000    0.0000 C   0  0  0  0  0  0  0  0  0  0  0  0
    0.0000    0.0000    0.0000 O   0  0  0  0  0  0  0  0  0  0  0  0
    0.0000    0.0000    0.0000 C   0  0  0  0  0  0  0  0  0  0  0  0
    0.0000    0.0000    0.0000 C   0  0  0  0  0  0  0  0  0  0  0  0
    0.0000    0.0000    0.0000 C   0  0  0  0  0  0  0  0  0  0  0  0
    0.0000    0.0000    0.0000 C   0  0  0  0  0  0  0  0  0  0  0  0
    0.0000    0.0000    0.0000 C   0  0  0  0  0  0  0  0  0  0  0  0
    0.0000    0.0000    0.0000 F   0  0  0  0  0  0  0  0  0  0  0  0
    0.0000    0.0000    0.0000 C   0  0  0  0  0  0  0  0  0  0  0  0
    0.0000    0.0000    0.0000 C   0  0  0  0  0  0  0  0  0  0  0  0
  1  2  1  0
  2  3  1  0
  3  4  2  0
  4  5  1  0
  5  6  1  0
  5  7  2  0
  7  8  1  0
  8  9  1  0
  8 10  2  0
 10 11  1  0
 11 12  3  0
 12 13  1  0
 13 14  1  0
 13 15  1  0
 15 16  2  0
 16 17  1  0
 17 18  2  0
 18 19  1  0
 19 20  2  0
 20 21  1  0
 21 22  1  0
 18 23  1  0
 23 24  2  0
 24 25  1  0
 25 26  2  0
 26 27  1  0
 26 28  1  0
 28 29  2  0
 10  3  1  0
 20 15  1  0
 29 23  1  0
M  END
>  <pIC50>  (542) 
6.83

>  <ChEMBL_ID>  (542) 
CHEMBL3234320

>  <document_journal>  (542) 
J. Med. Chem.

>  <bao_endpoint>  (542) 
BAO_0000190

>  <potential_duplicate>  (542) 
False

>  <uo_units>  (542) 
UO_0000065

>  <canonical_smiles>  (542) 
CCc1nc(N)nc(N)c1C#CC(C)c2ccc(cc2OC)c3ccc(F)cc3

>  <parent_molecule_chembl_id>  (542) 
CHEMBL3234320

>  <assay_type>  (542) 
B

>  <src_id>  (542) 
1

>  <ligand_efficiency>  (542) 
{u'le': u'0.32', u'bei': u'17.49', u'sei': u'7.85', u'lle': u'1.74'}

>  <standard_flag>  (542) 
True

>  <molecule_chembl_id>  (542) 
CHEMBL3234320

>  <target_organism>  (542) 
Homo sapiens

>  <standard_units>  (542) 
nM

>  <record_id>  (542) 
2082917

>  <document_chembl_id>  (542) 
CHEMBL3232887

>  <bao_format>  (542) 
BAO_0000357

>  <data_validity_description>  (542) 
None

>  <activity_id>  (542) 
14598434

>  <standard_type>  (542) 
IC50

>  <target_chembl_id>  (542) 
CHEMBL202

>  <data_validity_comment>  (542) 
None

>  <published_value>  (542) 
148

>  <document_year>  (542) 
2014

>  <target_pref_name>  (542) 
Dihydrofolate reductase

>  <assay_chembl_id>  (542) 
CHEMBL3239992

>  <standard_relation>  (542) 
=

>  <assay_description>  (542) 
Inhibition of human DHFR using dihydrofolate as substrate preincubated for 5 mins followed by substrate addition in presence of NADPH

>  <published_relation>  (542) 
=

>  <standard_value>  (542) 
148

>  <qudt_units>  (542) 
http://www.openphacts.org/units/Nanomolar

>  <target_tax_id>  (542) 
9606

>  <bao_label>  (542) 
single protein format

>  <published_units>  (542) 
nM

>  <pchembl_value>  (542) 
6.83

>  <published_type>  (542) 
IC50

>  <activity_comment>  (542) 
None

$$$$

     RDKit          

 26 28  0  0  0  0  0  0  0  0999 V2000
    0.0000    0.0000    0.0000 C   0  0  0  0  0  0  0  0  0  0  0  0
    0.0000    0.0000    0.0000 C   0  0  0  0  0  0  0  0  0  0  0  0
    0.0000    0.0000    0.0000 C   0  0  0  0  0  0  0  0  0  0  0  0
    0.0000    0.0000    0.0000 N   0  0  0  0  0  0  0  0  0  0  0  0
    0.0000    0.0000    0.0000 C   0  0  0  0  0  0  0  0  0  0  0  0
    0.0000    0.0000    0.0000 N   0  0  0  0  0  0  0  0  0  0  0  0
    0.0000    0.0000    0.0000 N   0  0  0  0  0  0  0  0  0  0  0  0
    0.0000    0.0000    0.0000 C   0  0  0  0  0  0  0  0  0  0  0  0
    0.0000    0.0000    0.0000 N   0  0  0  0  0  0  0  0  0  0  0  0
    0.0000    0.0000    0.0000 C   0  0  0  0  0  0  0  0  0  0  0  0
    0.0000    0.0000    0.0000 C   0  0  0  0  0  0  0  0  0  0  0  0
    0.0000    0.0000    0.0000 C   0  0  0  0  0  0  0  0  0  0  0  0
    0.0000    0.0000    0.0000 C   0  0  0  0  0  0  0  0  0  0  0  0
    0.0000    0.0000    0.0000 C   0  0  0  0  0  0  0  0  0  0  0  0
    0.0000    0.0000    0.0000 C   0  0  0  0  0  0  0  0  0  0  0  0
    0.0000    0.0000    0.0000 C   0  0  0  0  0  0  0  0  0  0  0  0
    0.0000    0.0000    0.0000 C   0  0  0  0  0  0  0  0  0  0  0  0
    0.0000    0.0000    0.0000 C   0  0  0  0  0  0  0  0  0  0  0  0
    0.0000    0.0000    0.0000 C   0  0  0  0  0  0  0  0  0  0  0  0
    0.0000    0.0000    0.0000 C   0  0  0  0  0  0  0  0  0  0  0  0
    0.0000    0.0000    0.0000 C   0  0  0  0  0  0  0  0  0  0  0  0
    0.0000    0.0000    0.0000 C   0  0  0  0  0  0  0  0  0  0  0  0
    0.0000    0.0000    0.0000 C   0  0  0  0  0  0  0  0  0  0  0  0
    0.0000    0.0000    0.0000 C   0  0  0  0  0  0  0  0  0  0  0  0
    0.0000    0.0000    0.0000 C   0  0  0  0  0  0  0  0  0  0  0  0
    0.0000    0.0000    0.0000 C   0  0  0  0  0  0  0  0  0  0  0  0
  1  2  1  0
  2  3  1  0
  3  4  2  0
  4  5  1  0
  5  6  1  0
  5  7  2  0
  7  8  1  0
  8  9  1  0
  8 10  2  0
 10 11  1  0
 11 12  3  0
 12 13  1  0
 13 14  1  0
 13 15  1  0
 15 16  2  0
 16 17  1  0
 17 18  2  0
 18 19  1  0
 19 20  2  0
 18 21  1  0
 21 22  2  0
 22 23  1  0
 23 24  2  0
 24 25  1  0
 25 26  2  0
 10  3  1  0
 20 15  1  0
 26 21  1  0
M  END
>  <pIC50>  (543) 
6.76

>  <ChEMBL_ID>  (543) 
CHEMBL3234321

>  <document_journal>  (543) 
J. Med. Chem.

>  <bao_endpoint>  (543) 
BAO_0000190

>  <potential_duplicate>  (543) 
False

>  <uo_units>  (543) 
UO_0000065

>  <canonical_smiles>  (543) 
CCc1nc(N)nc(N)c1C#CC(C)c2ccc(cc2)c3ccccc3

>  <parent_molecule_chembl_id>  (543) 
CHEMBL3234321

>  <assay_type>  (543) 
B

>  <src_id>  (543) 
1

>  <ligand_efficiency>  (543) 
{u'le': u'0.36', u'bei': u'19.74', u'sei': u'8.69', u'lle': u'1.86'}

>  <standard_flag>  (543) 
True

>  <molecule_chembl_id>  (543) 
CHEMBL3234321

>  <target_organism>  (543) 
Homo sapiens

>  <standard_units>  (543) 
nM

>  <record_id>  (543) 
2082918

>  <document_chembl_id>  (543) 
CHEMBL3232887

>  <bao_format>  (543) 
BAO_0000357

>  <data_validity_description>  (543) 
None

>  <activity_id>  (543) 
14598435

>  <standard_type>  (543) 
IC50

>  <target_chembl_id>  (543) 
CHEMBL202

>  <data_validity_comment>  (543) 
None

>  <published_value>  (543) 
174

>  <document_year>  (543) 
2014

>  <target_pref_name>  (543) 
Dihydrofolate reductase

>  <assay_chembl_id>  (543) 
CHEMBL3239992

>  <standard_relation>  (543) 
=

>  <assay_description>  (543) 
Inhibition of human DHFR using dihydrofolate as substrate preincubated for 5 mins followed by substrate addition in presence of NADPH

>  <published_relation>  (543) 
=

>  <standard_value>  (543) 
174

>  <qudt_units>  (543) 
http://www.openphacts.org/units/Nanomolar

>  <target_tax_id>  (543) 
9606

>  <bao_label>  (543) 
single protein format

>  <published_units>  (543) 
nM

>  <pchembl_value>  (543) 
6.76

>  <published_type>  (543) 
IC50

>  <activity_comment>  (543) 
None

$$$$

     RDKit          

 26 28  0  0  0  0  0  0  0  0999 V2000
    0.0000    0.0000    0.0000 C   0  0  0  0  0  0  0  0  0  0  0  0
    0.0000    0.0000    0.0000 C   0  0  0  0  0  0  0  0  0  0  0  0
    0.0000    0.0000    0.0000 C   0  0  0  0  0  0  0  0  0  0  0  0
    0.0000    0.0000    0.0000 N   0  0  0  0  0  0  0  0  0  0  0  0
    0.0000    0.0000    0.0000 C   0  0  0  0  0  0  0  0  0  0  0  0
    0.0000    0.0000    0.0000 N   0  0  0  0  0  0  0  0  0  0  0  0
    0.0000    0.0000    0.0000 N   0  0  0  0  0  0  0  0  0  0  0  0
    0.0000    0.0000    0.0000 C   0  0  0  0  0  0  0  0  0  0  0  0
    0.0000    0.0000    0.0000 N   0  0  0  0  0  0  0  0  0  0  0  0
    0.0000    0.0000    0.0000 C   0  0  0  0  0  0  0  0  0  0  0  0
    0.0000    0.0000    0.0000 C   0  0  0  0  0  0  0  0  0  0  0  0
    0.0000    0.0000    0.0000 C   0  0  0  0  0  0  0  0  0  0  0  0
    0.0000    0.0000    0.0000 C   0  0  0  0  0  0  0  0  0  0  0  0
    0.0000    0.0000    0.0000 C   0  0  0  0  0  0  0  0  0  0  0  0
    0.0000    0.0000    0.0000 C   0  0  0  0  0  0  0  0  0  0  0  0
    0.0000    0.0000    0.0000 C   0  0  0  0  0  0  0  0  0  0  0  0
    0.0000    0.0000    0.0000 C   0  0  0  0  0  0  0  0  0  0  0  0
    0.0000    0.0000    0.0000 C   0  0  0  0  0  0  0  0  0  0  0  0
    0.0000    0.0000    0.0000 N   0  0  0  0  0  0  0  0  0  0  0  0
    0.0000    0.0000    0.0000 C   0  0  0  0  0  0  0  0  0  0  0  0
    0.0000    0.0000    0.0000 C   0  0  0  0  0  0  0  0  0  0  0  0
    0.0000    0.0000    0.0000 C   0  0  0  0  0  0  0  0  0  0  0  0
    0.0000    0.0000    0.0000 C   0  0  0  0  0  0  0  0  0  0  0  0
    0.0000    0.0000    0.0000 C   0  0  0  0  0  0  0  0  0  0  0  0
    0.0000    0.0000    0.0000 C   0  0  0  0  0  0  0  0  0  0  0  0
    0.0000    0.0000    0.0000 C   0  0  0  0  0  0  0  0  0  0  0  0
  1  2  1  0
  2  3  1  0
  3  4  2  0
  4  5  1  0
  5  6  1  0
  5  7  2  0
  7  8  1  0
  8  9  1  0
  8 10  2  0
 10 11  1  0
 11 12  3  0
 12 13  1  0
 13 14  1  0
 13 15  1  0
 15 16  2  0
 16 17  1  0
 17 18  2  0
 18 19  1  0
 19 20  2  0
 18 21  1  0
 21 22  2  0
 22 23  1  0
 23 24  2  0
 24 25  1  0
 25 26  2  0
 10  3  1  0
 20 15  1  0
 26 21  1  0
M  END
>  <pIC50>  (544) 
6.16

>  <ChEMBL_ID>  (544) 
CHEMBL3234322

>  <document_journal>  (544) 
J. Med. Chem.

>  <bao_endpoint>  (544) 
BAO_0000190

>  <potential_duplicate>  (544) 
False

>  <uo_units>  (544) 
UO_0000065

>  <canonical_smiles>  (544) 
CCc1nc(N)nc(N)c1C#CC(C)c2ccc(nc2)c3ccccc3

>  <parent_molecule_chembl_id>  (544) 
CHEMBL3234322

>  <assay_type>  (544) 
B

>  <src_id>  (544) 
1

>  <ligand_efficiency>  (544) 
{u'le': u'0.32', u'bei': u'17.94', u'sei': u'6.79', u'lle': u'1.98'}

>  <standard_flag>  (544) 
True

>  <molecule_chembl_id>  (544) 
CHEMBL3234322

>  <target_organism>  (544) 
Homo sapiens

>  <standard_units>  (544) 
nM

>  <record_id>  (544) 
2082919

>  <document_chembl_id>  (544) 
CHEMBL3232887

>  <bao_format>  (544) 
BAO_0000357

>  <data_validity_description>  (544) 
None

>  <activity_id>  (544) 
14598436

>  <standard_type>  (544) 
IC50

>  <target_chembl_id>  (544) 
CHEMBL202

>  <data_validity_comment>  (544) 
None

>  <published_value>  (544) 
688

>  <document_year>  (544) 
2014

>  <target_pref_name>  (544) 
Dihydrofolate reductase

>  <assay_chembl_id>  (544) 
CHEMBL3239992

>  <standard_relation>  (544) 
=

>  <assay_description>  (544) 
Inhibition of human DHFR using dihydrofolate as substrate preincubated for 5 mins followed by substrate addition in presence of NADPH

>  <published_relation>  (544) 
=

>  <standard_value>  (544) 
688

>  <qudt_units>  (544) 
http://www.openphacts.org/units/Nanomolar

>  <target_tax_id>  (544) 
9606

>  <bao_label>  (544) 
single protein format

>  <published_units>  (544) 
nM

>  <pchembl_value>  (544) 
6.16

>  <published_type>  (544) 
IC50

>  <activity_comment>  (544) 
None

$$$$

     RDKit          

 27 29  0  0  0  0  0  0  0  0999 V2000
    0.0000    0.0000    0.0000 C   0  0  0  0  0  0  0  0  0  0  0  0
    0.0000    0.0000    0.0000 C   0  0  0  0  0  0  0  0  0  0  0  0
    0.0000    0.0000    0.0000 C   0  0  0  0  0  0  0  0  0  0  0  0
    0.0000    0.0000    0.0000 N   0  0  0  0  0  0  0  0  0  0  0  0
    0.0000    0.0000    0.0000 C   0  0  0  0  0  0  0  0  0  0  0  0
    0.0000    0.0000    0.0000 N   0  0  0  0  0  0  0  0  0  0  0  0
    0.0000    0.0000    0.0000 N   0  0  0  0  0  0  0  0  0  0  0  0
    0.0000    0.0000    0.0000 C   0  0  0  0  0  0  0  0  0  0  0  0
    0.0000    0.0000    0.0000 N   0  0  0  0  0  0  0  0  0  0  0  0
    0.0000    0.0000    0.0000 C   0  0  0  0  0  0  0  0  0  0  0  0
    0.0000    0.0000    0.0000 C   0  0  0  0  0  0  0  0  0  0  0  0
    0.0000    0.0000    0.0000 C   0  0  0  0  0  0  0  0  0  0  0  0
    0.0000    0.0000    0.0000 C   0  0  0  0  0  0  0  0  0  0  0  0
    0.0000    0.0000    0.0000 C   0  0  0  0  0  0  0  0  0  0  0  0
    0.0000    0.0000    0.0000 C   0  0  0  0  0  0  0  0  0  0  0  0
    0.0000    0.0000    0.0000 C   0  0  0  0  0  0  0  0  0  0  0  0
    0.0000    0.0000    0.0000 C   0  0  0  0  0  0  0  0  0  0  0  0
    0.0000    0.0000    0.0000 C   0  0  0  0  0  0  0  0  0  0  0  0
    0.0000    0.0000    0.0000 N   0  0  0  0  0  0  0  0  0  0  0  0
    0.0000    0.0000    0.0000 C   0  0  0  0  0  0  0  0  0  0  0  0
    0.0000    0.0000    0.0000 C   0  0  0  0  0  0  0  0  0  0  0  0
    0.0000    0.0000    0.0000 C   0  0  0  0  0  0  0  0  0  0  0  0
    0.0000    0.0000    0.0000 C   0  0  0  0  0  0  0  0  0  0  0  0
    0.0000    0.0000    0.0000 C   0  0  0  0  0  0  0  0  0  0  0  0
    0.0000    0.0000    0.0000 C   0  0  0  0  0  0  0  0  0  0  0  0
    0.0000    0.0000    0.0000 C   0  0  0  0  0  0  0  0  0  0  0  0
    0.0000    0.0000    0.0000 C   0  0  0  0  0  0  0  0  0  0  0  0
  1  2  1  0
  2  3  1  0
  3  4  2  0
  4  5  1  0
  5  6  1  0
  5  7  2  0
  7  8  1  0
  8  9  1  0
  8 10  2  0
 10 11  1  0
 11 12  3  0
 12 13  1  0
 13 14  1  0
 13 15  1  0
 15 16  2  0
 16 17  1  0
 17 18  2  0
 18 19  1  0
 19 20  2  0
 18 21  1  0
 21 22  2  0
 22 23  1  0
 23 24  2  0
 24 25  1  0
 24 26  1  0
 26 27  2  0
 10  3  1  0
 20 15  1  0
 27 21  1  0
M  END
>  <pIC50>  (545) 
6.2

>  <ChEMBL_ID>  (545) 
CHEMBL3234323

>  <document_journal>  (545) 
J. Med. Chem.

>  <bao_endpoint>  (545) 
BAO_0000190

>  <potential_duplicate>  (545) 
False

>  <uo_units>  (545) 
UO_0000065

>  <canonical_smiles>  (545) 
CCc1nc(N)nc(N)c1C#CC(C)c2ccc(nc2)c3ccc(C)cc3

>  <parent_molecule_chembl_id>  (545) 
CHEMBL3234323

>  <assay_type>  (545) 
B

>  <src_id>  (545) 
1

>  <ligand_efficiency>  (545) 
{u'le': u'0.31', u'bei': u'17.36', u'sei': u'6.84', u'lle': u'1.53'}

>  <standard_flag>  (545) 
True

>  <molecule_chembl_id>  (545) 
CHEMBL3234323

>  <target_organism>  (545) 
Homo sapiens

>  <standard_units>  (545) 
nM

>  <record_id>  (545) 
2082920

>  <document_chembl_id>  (545) 
CHEMBL3232887

>  <bao_format>  (545) 
BAO_0000357

>  <data_validity_description>  (545) 
None

>  <activity_id>  (545) 
14598437

>  <standard_type>  (545) 
IC50

>  <target_chembl_id>  (545) 
CHEMBL202

>  <data_validity_comment>  (545) 
None

>  <published_value>  (545) 
625

>  <document_year>  (545) 
2014

>  <target_pref_name>  (545) 
Dihydrofolate reductase

>  <assay_chembl_id>  (545) 
CHEMBL3239992

>  <standard_relation>  (545) 
=

>  <assay_description>  (545) 
Inhibition of human DHFR using dihydrofolate as substrate preincubated for 5 mins followed by substrate addition in presence of NADPH

>  <published_relation>  (545) 
=

>  <standard_value>  (545) 
625

>  <qudt_units>  (545) 
http://www.openphacts.org/units/Nanomolar

>  <target_tax_id>  (545) 
9606

>  <bao_label>  (545) 
single protein format

>  <published_units>  (545) 
nM

>  <pchembl_value>  (545) 
6.2

>  <published_type>  (545) 
IC50

>  <activity_comment>  (545) 
None

$$$$

     RDKit          

 26 28  0  0  0  0  0  0  0  0999 V2000
    0.0000    0.0000    0.0000 C   0  0  0  0  0  0  0  0  0  0  0  0
    0.0000    0.0000    0.0000 C   0  0  0  0  0  0  0  0  0  0  0  0
    0.0000    0.0000    0.0000 C   0  0  0  0  0  0  0  0  0  0  0  0
    0.0000    0.0000    0.0000 N   0  0  0  0  0  0  0  0  0  0  0  0
    0.0000    0.0000    0.0000 C   0  0  0  0  0  0  0  0  0  0  0  0
    0.0000    0.0000    0.0000 N   0  0  0  0  0  0  0  0  0  0  0  0
    0.0000    0.0000    0.0000 N   0  0  0  0  0  0  0  0  0  0  0  0
    0.0000    0.0000    0.0000 C   0  0  0  0  0  0  0  0  0  0  0  0
    0.0000    0.0000    0.0000 N   0  0  0  0  0  0  0  0  0  0  0  0
    0.0000    0.0000    0.0000 C   0  0  0  0  0  0  0  0  0  0  0  0
    0.0000    0.0000    0.0000 C   0  0  0  0  0  0  0  0  0  0  0  0
    0.0000    0.0000    0.0000 C   0  0  0  0  0  0  0  0  0  0  0  0
    0.0000    0.0000    0.0000 C   0  0  0  0  0  0  0  0  0  0  0  0
    0.0000    0.0000    0.0000 C   0  0  0  0  0  0  0  0  0  0  0  0
    0.0000    0.0000    0.0000 C   0  0  0  0  0  0  0  0  0  0  0  0
    0.0000    0.0000    0.0000 C   0  0  0  0  0  0  0  0  0  0  0  0
    0.0000    0.0000    0.0000 N   0  0  0  0  0  0  0  0  0  0  0  0
    0.0000    0.0000    0.0000 C   0  0  0  0  0  0  0  0  0  0  0  0
    0.0000    0.0000    0.0000 N   0  0  0  0  0  0  0  0  0  0  0  0
    0.0000    0.0000    0.0000 C   0  0  0  0  0  0  0  0  0  0  0  0
    0.0000    0.0000    0.0000 C   0  0  0  0  0  0  0  0  0  0  0  0
    0.0000    0.0000    0.0000 C   0  0  0  0  0  0  0  0  0  0  0  0
    0.0000    0.0000    0.0000 C   0  0  0  0  0  0  0  0  0  0  0  0
    0.0000    0.0000    0.0000 C   0  0  0  0  0  0  0  0  0  0  0  0
    0.0000    0.0000    0.0000 C   0  0  0  0  0  0  0  0  0  0  0  0
    0.0000    0.0000    0.0000 C   0  0  0  0  0  0  0  0  0  0  0  0
  1  2  1  0
  2  3  1  0
  3  4  2  0
  4  5  1  0
  5  6  1  0
  5  7  2  0
  7  8  1  0
  8  9  1  0
  8 10  2  0
 10 11  1  0
 11 12  3  0
 12 13  1  0
 13 14  1  0
 13 15  1  0
 15 16  2  0
 16 17  1  0
 17 18  2  0
 18 19  1  0
 19 20  2  0
 18 21  1  0
 21 22  2  0
 22 23  1  0
 23 24  2  0
 24 25  1  0
 25 26  2  0
 10  3  1  0
 20 15  1  0
 26 21  1  0
M  END
>  <pIC50>  (546) 
6.75

>  <ChEMBL_ID>  (546) 
CHEMBL3234324

>  <document_journal>  (546) 
J. Med. Chem.

>  <bao_endpoint>  (546) 
BAO_0000190

>  <potential_duplicate>  (546) 
False

>  <uo_units>  (546) 
UO_0000065

>  <canonical_smiles>  (546) 
CCc1nc(N)nc(N)c1C#CC(C)c2cnc(nc2)c3ccccc3

>  <parent_molecule_chembl_id>  (546) 
CHEMBL3234324

>  <assay_type>  (546) 
B

>  <src_id>  (546) 
1

>  <ligand_efficiency>  (546) 
{u'le': u'0.35', u'bei': u'19.58', u'sei': u'6.51', u'lle': u'3.51'}

>  <standard_flag>  (546) 
True

>  <molecule_chembl_id>  (546) 
CHEMBL3234324

>  <target_organism>  (546) 
Homo sapiens

>  <standard_units>  (546) 
nM

>  <record_id>  (546) 
2082921

>  <document_chembl_id>  (546) 
CHEMBL3232887

>  <bao_format>  (546) 
BAO_0000357

>  <data_validity_description>  (546) 
None

>  <activity_id>  (546) 
14598438

>  <standard_type>  (546) 
IC50

>  <target_chembl_id>  (546) 
CHEMBL202

>  <data_validity_comment>  (546) 
None

>  <published_value>  (546) 
180

>  <document_year>  (546) 
2014

>  <target_pref_name>  (546) 
Dihydrofolate reductase

>  <assay_chembl_id>  (546) 
CHEMBL3239992

>  <standard_relation>  (546) 
=

>  <assay_description>  (546) 
Inhibition of human DHFR using dihydrofolate as substrate preincubated for 5 mins followed by substrate addition in presence of NADPH

>  <published_relation>  (546) 
=

>  <standard_value>  (546) 
180

>  <qudt_units>  (546) 
http://www.openphacts.org/units/Nanomolar

>  <target_tax_id>  (546) 
9606

>  <bao_label>  (546) 
single protein format

>  <published_units>  (546) 
nM

>  <pchembl_value>  (546) 
6.75

>  <published_type>  (546) 
IC50

>  <activity_comment>  (546) 
None

$$$$

     RDKit          

 30 32  0  0  0  0  0  0  0  0999 V2000
    0.0000    0.0000    0.0000 N   0  0  0  0  0  0  0  0  0  0  0  0
    0.0000    0.0000    0.0000 C   0  0  0  0  0  0  0  0  0  0  0  0
    0.0000    0.0000    0.0000 N   0  0  0  0  0  0  0  0  0  0  0  0
    0.0000    0.0000    0.0000 C   0  0  0  0  0  0  0  0  0  0  0  0
    0.0000    0.0000    0.0000 N   0  0  0  0  0  0  0  0  0  0  0  0
    0.0000    0.0000    0.0000 C   0  0  0  0  0  0  0  0  0  0  0  0
    0.0000    0.0000    0.0000 C   0  0  0  0  0  0  0  0  0  0  0  0
    0.0000    0.0000    0.0000 C   0  0  0  0  0  0  0  0  0  0  0  0
    0.0000    0.0000    0.0000 C   0  0  0  0  0  0  0  0  0  0  0  0
    0.0000    0.0000    0.0000 C   0  0  0  0  0  0  0  0  0  0  0  0
    0.0000    0.0000    0.0000 C   0  0  0  0  0  0  0  0  0  0  0  0
    0.0000    0.0000    0.0000 C   0  0  0  0  0  0  0  0  0  0  0  0
    0.0000    0.0000    0.0000 C   0  0  0  0  0  0  0  0  0  0  0  0
    0.0000    0.0000    0.0000 C   0  0  0  0  0  0  0  0  0  0  0  0
    0.0000    0.0000    0.0000 C   0  0  0  0  0  0  0  0  0  0  0  0
    0.0000    0.0000    0.0000 O   0  0  0  0  0  0  0  0  0  0  0  0
    0.0000    0.0000    0.0000 N   0  0  0  0  0  0  0  0  0  0  0  0
    0.0000    0.0000    0.0000 C   0  0  0  0  0  0  0  0  0  0  0  0
    0.0000    0.0000    0.0000 C   0  0  0  0  0  0  0  0  0  0  0  0
    0.0000    0.0000    0.0000 C   0  0  0  0  0  0  0  0  0  0  0  0
    0.0000    0.0000    0.0000 C   0  0  0  0  0  0  0  0  0  0  0  0
    0.0000    0.0000    0.0000 O   0  0  0  0  0  0  0  0  0  0  0  0
    0.0000    0.0000    0.0000 O   0  0  0  0  0  0  0  0  0  0  0  0
    0.0000    0.0000    0.0000 C   0  0  0  0  0  0  0  0  0  0  0  0
    0.0000    0.0000    0.0000 O   0  0  0  0  0  0  0  0  0  0  0  0
    0.0000    0.0000    0.0000 O   0  0  0  0  0  0  0  0  0  0  0  0
    0.0000    0.0000    0.0000 C   0  0  0  0  0  0  0  0  0  0  0  0
    0.0000    0.0000    0.0000 C   0  0  0  0  0  0  0  0  0  0  0  0
    0.0000    0.0000    0.0000 O   0  0  0  0  0  0  0  0  0  0  0  0
    0.0000    0.0000    0.0000 N   0  0  0  0  0  0  0  0  0  0  0  0
  1  2  1  0
  2  3  2  0
  3  4  1  0
  4  5  1  0
  5  6  1  0
  6  7  2  0
  7  8  1  0
  8  9  1  0
  9 10  2  0
 10 11  1  0
 11 12  2  0
 12 13  1  0
 13 14  2  0
 12 15  1  0
 15 16  2  0
 15 17  1  0
 17 18  1  0
 18 19  1  0
 19 20  1  0
 20 21  1  0
 21 22  2  0
 21 23  1  0
 18 24  1  0
 24 25  2  0
 24 26  1  0
  7 27  1  0
 27 28  1  0
 28 29  2  0
 28 30  1  0
 30  2  1  0
 27  4  2  0
 14  9  1  0
M  END
>  <pIC50>  (547) 
6.19

>  <ChEMBL_ID>  (547) 
CHEMBL2426247

>  <document_journal>  (547) 
Bioorg. Med. Chem. Lett.

>  <bao_endpoint>  (547) 
BAO_0000190

>  <potential_duplicate>  (547) 
False

>  <uo_units>  (547) 
UO_0000065

>  <canonical_smiles>  (547) 
NC1=Nc2[nH]cc(Cc3ccc(cc3)C(=O)N[C@@H](CCC(=O)O)C(=O)O)c2C(=O)N1

>  <parent_molecule_chembl_id>  (547) 
CHEMBL2426247

>  <assay_type>  (547) 
B

>  <src_id>  (547) 
1

>  <ligand_efficiency>  (547) 
{u'le': u'0.28', u'bei': u'14.98', u'sei': u'3.31', u'lle': u'5.5'}

>  <standard_flag>  (547) 
True

>  <molecule_chembl_id>  (547) 
CHEMBL2426247

>  <target_organism>  (547) 
Homo sapiens

>  <standard_units>  (547) 
nM

>  <record_id>  (547) 
2266069

>  <document_chembl_id>  (547) 
CHEMBL3351290

>  <bao_format>  (547) 
BAO_0000357

>  <data_validity_description>  (547) 
None

>  <activity_id>  (547) 
15004819

>  <standard_type>  (547) 
IC50

>  <target_chembl_id>  (547) 
CHEMBL202

>  <data_validity_comment>  (547) 
None

>  <published_value>  (547) 
0.64

>  <document_year>  (547) 
2014

>  <target_pref_name>  (547) 
Dihydrofolate reductase

>  <assay_chembl_id>  (547) 
CHEMBL3364305

>  <standard_relation>  (547) 
=

>  <assay_description>  (547) 
Inhibition of human DHFR

>  <published_relation>  (547) 
=

>  <standard_value>  (547) 
640

>  <qudt_units>  (547) 
http://www.openphacts.org/units/Nanomolar

>  <target_tax_id>  (547) 
9606

>  <bao_label>  (547) 
single protein format

>  <published_units>  (547) 
uM

>  <pchembl_value>  (547) 
6.19

>  <published_type>  (547) 
IC50

>  <activity_comment>  (547) 
None

$$$$

     RDKit          

 32 35  0  0  0  0  0  0  0  0999 V2000
    0.0000    0.0000    0.0000 C   0  0  0  0  0  0  0  0  0  0  0  0
    0.0000    0.0000    0.0000 O   0  0  0  0  0  0  0  0  0  0  0  0
    0.0000    0.0000    0.0000 C   0  0  0  0  0  0  0  0  0  0  0  0
    0.0000    0.0000    0.0000 C   0  0  0  0  0  0  0  0  0  0  0  0
    0.0000    0.0000    0.0000 C   0  0  0  0  0  0  0  0  0  0  0  0
    0.0000    0.0000    0.0000 C   0  0  0  0  0  0  0  0  0  0  0  0
    0.0000    0.0000    0.0000 C   0  0  0  0  0  0  0  0  0  0  0  0
    0.0000    0.0000    0.0000 C   0  0  0  0  0  0  0  0  0  0  0  0
    0.0000    0.0000    0.0000 C   0  0  0  0  0  0  0  0  0  0  0  0
    0.0000    0.0000    0.0000 C   0  0  0  0  0  0  0  0  0  0  0  0
    0.0000    0.0000    0.0000 C   0  0  0  0  0  0  0  0  0  0  0  0
    0.0000    0.0000    0.0000 C   0  0  0  0  0  0  0  0  0  0  0  0
    0.0000    0.0000    0.0000 C   0  0  0  0  0  0  0  0  0  0  0  0
    0.0000    0.0000    0.0000 N   0  0  0  0  0  0  0  0  0  0  0  0
    0.0000    0.0000    0.0000 C   0  0  0  0  0  0  0  0  0  0  0  0
    0.0000    0.0000    0.0000 C   0  0  0  0  0  0  0  0  0  0  0  0
    0.0000    0.0000    0.0000 N   0  0  0  0  0  0  0  0  0  0  0  0
    0.0000    0.0000    0.0000 C   0  0  0  0  0  0  0  0  0  0  0  0
    0.0000    0.0000    0.0000 C   0  0  0  0  0  0  0  0  0  0  0  0
    0.0000    0.0000    0.0000 C   0  0  0  0  0  0  0  0  0  0  0  0
    0.0000    0.0000    0.0000 C   0  0  0  0  0  0  0  0  0  0  0  0
    0.0000    0.0000    0.0000 C   0  0  0  0  0  0  0  0  0  0  0  0
    0.0000    0.0000    0.0000 O   0  0  0  0  0  0  0  0  0  0  0  0
    0.0000    0.0000    0.0000 C   0  0  0  0  0  0  0  0  0  0  0  0
    0.0000    0.0000    0.0000 C   0  0  0  0  0  0  0  0  0  0  0  0
    0.0000    0.0000    0.0000 O   0  0  0  0  0  0  0  0  0  0  0  0
    0.0000    0.0000    0.0000 C   0  0  0  0  0  0  0  0  0  0  0  0
    0.0000    0.0000    0.0000 C   0  0  0  0  0  0  0  0  0  0  0  0
    0.0000    0.0000    0.0000 C   0  0  0  0  0  0  0  0  0  0  0  0
    0.0000    0.0000    0.0000 C   0  0  0  0  0  0  0  0  0  0  0  0
    0.0000    0.0000    0.0000 O   0  0  0  0  0  0  0  0  0  0  0  0
    0.0000    0.0000    0.0000 C   0  0  0  0  0  0  0  0  0  0  0  0
  1  2  1  0
  2  3  1  0
  3  4  2  0
  4  5  1  0
  5  6  2  0
  6  7  1  0
  7  8  2  0
  8  9  1  0
  9 10  1  0
 10 11  1  0
 11 12  1  0
 12 13  2  0
 13 14  1  0
 14 15  2  0
 15 16  1  0
 15 17  1  0
 17 18  2  0
 18 19  1  0
 19 20  2  0
 20 21  1  0
 21 22  2  0
 22 23  1  0
 23 24  1  0
 22 25  1  0
 25 26  1  0
 26 27  1  0
 25 28  2  0
  6 29  1  0
 29 30  2  0
 30 31  1  0
 31 32  1  0
 30  3  1  0
  8 13  1  0
 18 12  1  0
 28 19  1  0
M  END
>  <pIC50>  (548) 
7.0

>  <ChEMBL_ID>  (548) 
CHEMBL3115730

>  <document_journal>  (548) 
Eur. J. Med. Chem.

>  <bao_endpoint>  (548) 
BAO_0000190

>  <potential_duplicate>  (548) 
False

>  <uo_units>  (548) 
UO_0000065

>  <canonical_smiles>  (548) 
COc1ccc(\C=C\2/CCCc3c2nc(C)nc3c4ccc(OC)c(OC)c4)cc1OC

>  <parent_molecule_chembl_id>  (548) 
CHEMBL3115730

>  <assay_type>  (548) 
B

>  <src_id>  (548) 
1

>  <ligand_efficiency>  (548) 
{u'le': u'0.3', u'bei': u'16.18', u'sei': u'11.16', u'lle': u'1.68'}

>  <standard_flag>  (548) 
True

>  <molecule_chembl_id>  (548) 
CHEMBL3115730

>  <target_organism>  (548) 
Homo sapiens

>  <standard_units>  (548) 
nM

>  <record_id>  (548) 
2279085

>  <document_chembl_id>  (548) 
CHEMBL3396974

>  <bao_format>  (548) 
BAO_0000357

>  <data_validity_description>  (548) 
None

>  <activity_id>  (548) 
15156217

>  <standard_type>  (548) 
IC50

>  <target_chembl_id>  (548) 
CHEMBL202

>  <data_validity_comment>  (548) 
None

>  <published_value>  (548) 
0.1

>  <document_year>  (548) 
2015

>  <target_pref_name>  (548) 
Dihydrofolate reductase

>  <assay_chembl_id>  (548) 
CHEMBL3399404

>  <standard_relation>  (548) 
=

>  <assay_description>  (548) 
Inhibition of DHFR (unknown origin)

>  <published_relation>  (548) 
=

>  <standard_value>  (548) 
100

>  <qudt_units>  (548) 
http://www.openphacts.org/units/Nanomolar

>  <target_tax_id>  (548) 
9606

>  <bao_label>  (548) 
single protein format

>  <published_units>  (548) 
uM

>  <pchembl_value>  (548) 
7

>  <published_type>  (548) 
IC50

>  <activity_comment>  (548) 
None

$$$$

     RDKit          

 36 39  0  0  0  0  0  0  0  0999 V2000
    0.0000    0.0000    0.0000 C   0  0  0  0  0  0  0  0  0  0  0  0
    0.0000    0.0000    0.0000 O   0  0  0  0  0  0  0  0  0  0  0  0
    0.0000    0.0000    0.0000 C   0  0  0  0  0  0  0  0  0  0  0  0
    0.0000    0.0000    0.0000 C   0  0  0  0  0  0  0  0  0  0  0  0
    0.0000    0.0000    0.0000 C   0  0  0  0  0  0  0  0  0  0  0  0
    0.0000    0.0000    0.0000 C   0  0  0  0  0  0  0  0  0  0  0  0
    0.0000    0.0000    0.0000 C   0  0  0  0  0  0  0  0  0  0  0  0
    0.0000    0.0000    0.0000 C   0  0  0  0  0  0  0  0  0  0  0  0
    0.0000    0.0000    0.0000 C   0  0  0  0  0  0  0  0  0  0  0  0
    0.0000    0.0000    0.0000 C   0  0  0  0  0  0  0  0  0  0  0  0
    0.0000    0.0000    0.0000 C   0  0  0  0  0  0  0  0  0  0  0  0
    0.0000    0.0000    0.0000 C   0  0  0  0  0  0  0  0  0  0  0  0
    0.0000    0.0000    0.0000 N   0  0  0  0  0  0  0  0  0  0  0  0
    0.0000    0.0000    0.0000 C   0  0  0  0  0  0  0  0  0  0  0  0
    0.0000    0.0000    0.0000 C   0  0  0  0  0  0  0  0  0  0  0  0
    0.0000    0.0000    0.0000 N   0  0  0  0  0  0  0  0  0  0  0  0
    0.0000    0.0000    0.0000 C   0  0  0  0  0  0  0  0  0  0  0  0
    0.0000    0.0000    0.0000 C   0  0  0  0  0  0  0  0  0  0  0  0
    0.0000    0.0000    0.0000 C   0  0  0  0  0  0  0  0  0  0  0  0
    0.0000    0.0000    0.0000 C   0  0  0  0  0  0  0  0  0  0  0  0
    0.0000    0.0000    0.0000 O   0  0  0  0  0  0  0  0  0  0  0  0
    0.0000    0.0000    0.0000 C   0  0  0  0  0  0  0  0  0  0  0  0
    0.0000    0.0000    0.0000 C   0  0  0  0  0  0  0  0  0  0  0  0
    0.0000    0.0000    0.0000 O   0  0  0  0  0  0  0  0  0  0  0  0
    0.0000    0.0000    0.0000 C   0  0  0  0  0  0  0  0  0  0  0  0
    0.0000    0.0000    0.0000 C   0  0  0  0  0  0  0  0  0  0  0  0
    0.0000    0.0000    0.0000 O   0  0  0  0  0  0  0  0  0  0  0  0
    0.0000    0.0000    0.0000 C   0  0  0  0  0  0  0  0  0  0  0  0
    0.0000    0.0000    0.0000 C   0  0  0  0  0  0  0  0  0  0  0  0
    0.0000    0.0000    0.0000 C   0  0  0  0  0  0  0  0  0  0  0  0
    0.0000    0.0000    0.0000 C   0  0  0  0  0  0  0  0  0  0  0  0
    0.0000    0.0000    0.0000 O   0  0  0  0  0  0  0  0  0  0  0  0
    0.0000    0.0000    0.0000 C   0  0  0  0  0  0  0  0  0  0  0  0
    0.0000    0.0000    0.0000 C   0  0  0  0  0  0  0  0  0  0  0  0
    0.0000    0.0000    0.0000 O   0  0  0  0  0  0  0  0  0  0  0  0
    0.0000    0.0000    0.0000 C   0  0  0  0  0  0  0  0  0  0  0  0
  1  2  1  0
  2  3  1  0
  3  4  2  0
  4  5  1  0
  5  6  1  0
  6  7  2  0
  7  8  1  0
  8  9  1  0
  9 10  1  0
 10 11  1  0
 11 12  2  0
 12 13  1  0
 13 14  2  0
 14 15  1  0
 14 16  1  0
 16 17  2  0
 17 18  1  0
 18 19  2  0
 19 20  1  0
 20 21  1  0
 21 22  1  0
 20 23  2  0
 23 24  1  0
 24 25  1  0
 23 26  1  0
 26 27  1  0
 27 28  1  0
 26 29  2  0
  5 30  2  0
 30 31  1  0
 31 32  1  0
 32 33  1  0
 31 34  2  0
 34 35  1  0
 35 36  1  0
 34  3  1  0
  7 12  1  0
 17 11  1  0
 29 18  1  0
M  END
>  <pIC50>  (549) 
6.3

>  <ChEMBL_ID>  (549) 
CHEMBL3115731

>  <document_journal>  (549) 
Eur. J. Med. Chem.

>  <bao_endpoint>  (549) 
BAO_0000190

>  <potential_duplicate>  (549) 
False

>  <uo_units>  (549) 
UO_0000065

>  <canonical_smiles>  (549) 
COc1cc(\C=C\2/CCCc3c2nc(C)nc3c4cc(OC)c(OC)c(OC)c4)cc(OC)c1OC

>  <parent_molecule_chembl_id>  (549) 
CHEMBL3115731

>  <assay_type>  (549) 
B

>  <src_id>  (549) 
1

>  <ligand_efficiency>  (549) 
{u'le': u'0.24', u'bei': u'12.79', u'sei': u'7.76', u'lle': u'1.01'}

>  <standard_flag>  (549) 
True

>  <molecule_chembl_id>  (549) 
CHEMBL3115731

>  <target_organism>  (549) 
Homo sapiens

>  <standard_units>  (549) 
nM

>  <record_id>  (549) 
2279086

>  <document_chembl_id>  (549) 
CHEMBL3396974

>  <bao_format>  (549) 
BAO_0000357

>  <data_validity_description>  (549) 
None

>  <activity_id>  (549) 
15156218

>  <standard_type>  (549) 
IC50

>  <target_chembl_id>  (549) 
CHEMBL202

>  <data_validity_comment>  (549) 
None

>  <published_value>  (549) 
0.5

>  <document_year>  (549) 
2015

>  <target_pref_name>  (549) 
Dihydrofolate reductase

>  <assay_chembl_id>  (549) 
CHEMBL3399404

>  <standard_relation>  (549) 
=

>  <assay_description>  (549) 
Inhibition of DHFR (unknown origin)

>  <published_relation>  (549) 
=

>  <standard_value>  (549) 
500

>  <qudt_units>  (549) 
http://www.openphacts.org/units/Nanomolar

>  <target_tax_id>  (549) 
9606

>  <bao_label>  (549) 
single protein format

>  <published_units>  (549) 
uM

>  <pchembl_value>  (549) 
6.3

>  <published_type>  (549) 
IC50

>  <activity_comment>  (549) 
None

$$$$

     RDKit          

 32 35  0  0  0  0  0  0  0  0999 V2000
    0.0000    0.0000    0.0000 C   0  0  0  0  0  0  0  0  0  0  0  0
    0.0000    0.0000    0.0000 O   0  0  0  0  0  0  0  0  0  0  0  0
    0.0000    0.0000    0.0000 C   0  0  0  0  0  0  0  0  0  0  0  0
    0.0000    0.0000    0.0000 C   0  0  0  0  0  0  0  0  0  0  0  0
    0.0000    0.0000    0.0000 C   0  0  0  0  0  0  0  0  0  0  0  0
    0.0000    0.0000    0.0000 C   0  0  0  0  0  0  0  0  0  0  0  0
    0.0000    0.0000    0.0000 C   0  0  0  0  0  0  0  0  0  0  0  0
    0.0000    0.0000    0.0000 C   0  0  0  0  0  0  0  0  0  0  0  0
    0.0000    0.0000    0.0000 C   0  0  0  0  0  0  0  0  0  0  0  0
    0.0000    0.0000    0.0000 C   0  0  0  0  0  0  0  0  0  0  0  0
    0.0000    0.0000    0.0000 C   0  0  0  0  0  0  0  0  0  0  0  0
    0.0000    0.0000    0.0000 C   0  0  0  0  0  0  0  0  0  0  0  0
    0.0000    0.0000    0.0000 C   0  0  0  0  0  0  0  0  0  0  0  0
    0.0000    0.0000    0.0000 N   0  0  0  0  0  0  0  0  0  0  0  0
    0.0000    0.0000    0.0000 C   0  0  0  0  0  0  0  0  0  0  0  0
    0.0000    0.0000    0.0000 N   0  0  0  0  0  0  0  0  0  0  0  0
    0.0000    0.0000    0.0000 N   0  0  0  0  0  0  0  0  0  0  0  0
    0.0000    0.0000    0.0000 C   0  0  0  0  0  0  0  0  0  0  0  0
    0.0000    0.0000    0.0000 C   0  0  0  0  0  0  0  0  0  0  0  0
    0.0000    0.0000    0.0000 C   0  0  0  0  0  0  0  0  0  0  0  0
    0.0000    0.0000    0.0000 C   0  0  0  0  0  0  0  0  0  0  0  0
    0.0000    0.0000    0.0000 C   0  0  0  0  0  0  0  0  0  0  0  0
    0.0000    0.0000    0.0000 O   0  0  0  0  0  0  0  0  0  0  0  0
    0.0000    0.0000    0.0000 C   0  0  0  0  0  0  0  0  0  0  0  0
    0.0000    0.0000    0.0000 C   0  0  0  0  0  0  0  0  0  0  0  0
    0.0000    0.0000    0.0000 O   0  0  0  0  0  0  0  0  0  0  0  0
    0.0000    0.0000    0.0000 C   0  0  0  0  0  0  0  0  0  0  0  0
    0.0000    0.0000    0.0000 C   0  0  0  0  0  0  0  0  0  0  0  0
    0.0000    0.0000    0.0000 C   0  0  0  0  0  0  0  0  0  0  0  0
    0.0000    0.0000    0.0000 C   0  0  0  0  0  0  0  0  0  0  0  0
    0.0000    0.0000    0.0000 O   0  0  0  0  0  0  0  0  0  0  0  0
    0.0000    0.0000    0.0000 C   0  0  0  0  0  0  0  0  0  0  0  0
  1  2  1  0
  2  3  1  0
  3  4  2  0
  4  5  1  0
  5  6  2  0
  6  7  1  0
  7  8  2  0
  8  9  1  0
  9 10  1  0
 10 11  1  0
 11 12  1  0
 12 13  2  0
 13 14  1  0
 14 15  2  0
 15 16  1  0
 15 17  1  0
 17 18  2  0
 18 19  1  0
 19 20  2  0
 20 21  1  0
 21 22  2  0
 22 23  1  0
 23 24  1  0
 22 25  1  0
 25 26  1  0
 26 27  1  0
 25 28  2  0
  6 29  1  0
 29 30  2  0
 30 31  1  0
 31 32  1  0
 30  3  1  0
  8 13  1  0
 18 12  1  0
 28 19  1  0
M  END
>  <pIC50>  (550) 
4.85

>  <ChEMBL_ID>  (550) 
CHEMBL1807580

>  <document_journal>  (550) 
Eur. J. Med. Chem.

>  <bao_endpoint>  (550) 
BAO_0000190

>  <potential_duplicate>  (550) 
False

>  <uo_units>  (550) 
UO_0000065

>  <canonical_smiles>  (550) 
COc1ccc(\C=C\2/CCCc3c2nc(N)nc3c4ccc(OC)c(OC)c4)cc1OC

>  <parent_molecule_chembl_id>  (550) 
CHEMBL1807580

>  <assay_type>  (550) 
B

>  <src_id>  (550) 
1

>  <ligand_efficiency>  (550) 
{u'le': u'0.21', u'bei': u'11.2', u'sei': u'5.47', u'lle': u'-0.29'}

>  <standard_flag>  (550) 
True

>  <molecule_chembl_id>  (550) 
CHEMBL1807580

>  <target_organism>  (550) 
Homo sapiens

>  <standard_units>  (550) 
nM

>  <record_id>  (550) 
2279109

>  <document_chembl_id>  (550) 
CHEMBL3396974

>  <bao_format>  (550) 
BAO_0000357

>  <data_validity_description>  (550) 
None

>  <activity_id>  (550) 
15156262

>  <standard_type>  (550) 
IC50

>  <target_chembl_id>  (550) 
CHEMBL202

>  <data_validity_comment>  (550) 
None

>  <published_value>  (550) 
14

>  <document_year>  (550) 
2015

>  <target_pref_name>  (550) 
Dihydrofolate reductase

>  <assay_chembl_id>  (550) 
CHEMBL3399404

>  <standard_relation>  (550) 
=

>  <assay_description>  (550) 
Inhibition of DHFR (unknown origin)

>  <published_relation>  (550) 
=

>  <standard_value>  (550) 
14000

>  <qudt_units>  (550) 
http://www.openphacts.org/units/Nanomolar

>  <target_tax_id>  (550) 
9606

>  <bao_label>  (550) 
single protein format

>  <published_units>  (550) 
uM

>  <pchembl_value>  (550) 
4.85

>  <published_type>  (550) 
IC50

>  <activity_comment>  (550) 
None

$$$$

     RDKit          

 36 39  0  0  0  0  0  0  0  0999 V2000
    0.0000    0.0000    0.0000 C   0  0  0  0  0  0  0  0  0  0  0  0
    0.0000    0.0000    0.0000 O   0  0  0  0  0  0  0  0  0  0  0  0
    0.0000    0.0000    0.0000 C   0  0  0  0  0  0  0  0  0  0  0  0
    0.0000    0.0000    0.0000 C   0  0  0  0  0  0  0  0  0  0  0  0
    0.0000    0.0000    0.0000 C   0  0  0  0  0  0  0  0  0  0  0  0
    0.0000    0.0000    0.0000 C   0  0  0  0  0  0  0  0  0  0  0  0
    0.0000    0.0000    0.0000 C   0  0  0  0  0  0  0  0  0  0  0  0
    0.0000    0.0000    0.0000 C   0  0  0  0  0  0  0  0  0  0  0  0
    0.0000    0.0000    0.0000 C   0  0  0  0  0  0  0  0  0  0  0  0
    0.0000    0.0000    0.0000 C   0  0  0  0  0  0  0  0  0  0  0  0
    0.0000    0.0000    0.0000 C   0  0  0  0  0  0  0  0  0  0  0  0
    0.0000    0.0000    0.0000 C   0  0  0  0  0  0  0  0  0  0  0  0
    0.0000    0.0000    0.0000 N   0  0  0  0  0  0  0  0  0  0  0  0
    0.0000    0.0000    0.0000 C   0  0  0  0  0  0  0  0  0  0  0  0
    0.0000    0.0000    0.0000 N   0  0  0  0  0  0  0  0  0  0  0  0
    0.0000    0.0000    0.0000 N   0  0  0  0  0  0  0  0  0  0  0  0
    0.0000    0.0000    0.0000 C   0  0  0  0  0  0  0  0  0  0  0  0
    0.0000    0.0000    0.0000 C   0  0  0  0  0  0  0  0  0  0  0  0
    0.0000    0.0000    0.0000 C   0  0  0  0  0  0  0  0  0  0  0  0
    0.0000    0.0000    0.0000 C   0  0  0  0  0  0  0  0  0  0  0  0
    0.0000    0.0000    0.0000 O   0  0  0  0  0  0  0  0  0  0  0  0
    0.0000    0.0000    0.0000 C   0  0  0  0  0  0  0  0  0  0  0  0
    0.0000    0.0000    0.0000 C   0  0  0  0  0  0  0  0  0  0  0  0
    0.0000    0.0000    0.0000 O   0  0  0  0  0  0  0  0  0  0  0  0
    0.0000    0.0000    0.0000 C   0  0  0  0  0  0  0  0  0  0  0  0
    0.0000    0.0000    0.0000 C   0  0  0  0  0  0  0  0  0  0  0  0
    0.0000    0.0000    0.0000 O   0  0  0  0  0  0  0  0  0  0  0  0
    0.0000    0.0000    0.0000 C   0  0  0  0  0  0  0  0  0  0  0  0
    0.0000    0.0000    0.0000 C   0  0  0  0  0  0  0  0  0  0  0  0
    0.0000    0.0000    0.0000 C   0  0  0  0  0  0  0  0  0  0  0  0
    0.0000    0.0000    0.0000 C   0  0  0  0  0  0  0  0  0  0  0  0
    0.0000    0.0000    0.0000 O   0  0  0  0  0  0  0  0  0  0  0  0
    0.0000    0.0000    0.0000 C   0  0  0  0  0  0  0  0  0  0  0  0
    0.0000    0.0000    0.0000 C   0  0  0  0  0  0  0  0  0  0  0  0
    0.0000    0.0000    0.0000 O   0  0  0  0  0  0  0  0  0  0  0  0
    0.0000    0.0000    0.0000 C   0  0  0  0  0  0  0  0  0  0  0  0
  1  2  1  0
  2  3  1  0
  3  4  2  0
  4  5  1  0
  5  6  1  0
  6  7  2  0
  7  8  1  0
  8  9  1  0
  9 10  1  0
 10 11  1  0
 11 12  2  0
 12 13  1  0
 13 14  2  0
 14 15  1  0
 14 16  1  0
 16 17  2  0
 17 18  1  0
 18 19  2  0
 19 20  1  0
 20 21  1  0
 21 22  1  0
 20 23  2  0
 23 24  1  0
 24 25  1  0
 23 26  1  0
 26 27  1  0
 27 28  1  0
 26 29  2  0
  5 30  2  0
 30 31  1  0
 31 32  1  0
 32 33  1  0
 31 34  2  0
 34 35  1  0
 35 36  1  0
 34  3  1  0
  7 12  1  0
 17 11  1  0
 29 18  1  0
M  END
>  <pIC50>  (551) 
4.85

>  <ChEMBL_ID>  (551) 
CHEMBL1807581

>  <document_journal>  (551) 
Eur. J. Med. Chem.

>  <bao_endpoint>  (551) 
BAO_0000190

>  <potential_duplicate>  (551) 
False

>  <uo_units>  (551) 
UO_0000065

>  <canonical_smiles>  (551) 
COc1cc(\C=C\2/CCCc3c2nc(N)nc3c4cc(OC)c(OC)c(OC)c4)cc(OC)c1OC

>  <parent_molecule_chembl_id>  (551) 
CHEMBL1807581

>  <assay_type>  (551) 
B

>  <src_id>  (551) 
1

>  <ligand_efficiency>  (551) 
{u'le': u'0.18', u'bei': u'9.83', u'sei': u'4.53', u'lle': u'-0.26'}

>  <standard_flag>  (551) 
True

>  <molecule_chembl_id>  (551) 
CHEMBL1807581

>  <target_organism>  (551) 
Homo sapiens

>  <standard_units>  (551) 
nM

>  <record_id>  (551) 
2279110

>  <document_chembl_id>  (551) 
CHEMBL3396974

>  <bao_format>  (551) 
BAO_0000357

>  <data_validity_description>  (551) 
None

>  <activity_id>  (551) 
15156263

>  <standard_type>  (551) 
IC50

>  <target_chembl_id>  (551) 
CHEMBL202

>  <data_validity_comment>  (551) 
None

>  <published_value>  (551) 
14

>  <document_year>  (551) 
2015

>  <target_pref_name>  (551) 
Dihydrofolate reductase

>  <assay_chembl_id>  (551) 
CHEMBL3399404

>  <standard_relation>  (551) 
=

>  <assay_description>  (551) 
Inhibition of DHFR (unknown origin)

>  <published_relation>  (551) 
=

>  <standard_value>  (551) 
14000

>  <qudt_units>  (551) 
http://www.openphacts.org/units/Nanomolar

>  <target_tax_id>  (551) 
9606

>  <bao_label>  (551) 
single protein format

>  <published_units>  (551) 
uM

>  <pchembl_value>  (551) 
4.85

>  <published_type>  (551) 
IC50

>  <activity_comment>  (551) 
None

$$$$

     RDKit          

 28 30  0  0  0  0  0  0  0  0999 V2000
    0.0000    0.0000    0.0000 C   0  0  0  0  0  0  0  0  0  0  0  0
    0.0000    0.0000    0.0000 O   0  0  0  0  0  0  0  0  0  0  0  0
    0.0000    0.0000    0.0000 C   0  0  0  0  0  0  0  0  0  0  0  0
    0.0000    0.0000    0.0000 C   0  0  0  0  0  0  0  0  0  0  0  0
    0.0000    0.0000    0.0000 C   0  0  0  0  0  0  0  0  0  0  0  0
    0.0000    0.0000    0.0000 C   0  0  0  0  0  0  0  0  0  0  0  0
    0.0000    0.0000    0.0000 C   0  0  0  0  0  0  0  0  0  0  0  0
    0.0000    0.0000    0.0000 C   0  0  0  0  0  0  0  0  0  0  0  0
    0.0000    0.0000    0.0000 C   0  0  0  0  0  0  0  0  0  0  0  0
    0.0000    0.0000    0.0000 C   0  0  0  0  0  0  0  0  0  0  0  0
    0.0000    0.0000    0.0000 C   0  0  0  0  0  0  0  0  0  0  0  0
    0.0000    0.0000    0.0000 C   0  0  0  0  0  0  0  0  0  0  0  0
    0.0000    0.0000    0.0000 C   0  0  0  0  0  0  0  0  0  0  0  0
    0.0000    0.0000    0.0000 C   0  0  0  0  0  0  0  0  0  0  0  0
    0.0000    0.0000    0.0000 C   0  0  0  0  0  0  0  0  0  0  0  0
    0.0000    0.0000    0.0000 N   0  0  0  0  0  0  0  0  0  0  0  0
    0.0000    0.0000    0.0000 C   0  0  0  0  0  0  0  0  0  0  0  0
    0.0000    0.0000    0.0000 N   0  0  0  0  0  0  0  0  0  0  0  0
    0.0000    0.0000    0.0000 N   0  0  0  0  0  0  0  0  0  0  0  0
    0.0000    0.0000    0.0000 C   0  0  0  0  0  0  0  0  0  0  0  0
    0.0000    0.0000    0.0000 N   0  0  0  0  0  0  0  0  0  0  0  0
    0.0000    0.0000    0.0000 C   0  0  0  0  0  0  0  0  0  0  0  0
    0.0000    0.0000    0.0000 C   0  0  0  0  0  0  0  0  0  0  0  0
    0.0000    0.0000    0.0000 C   0  0  0  0  0  0  0  0  0  0  0  0
    0.0000    0.0000    0.0000 C   0  0  0  0  0  0  0  0  0  0  0  0
    0.0000    0.0000    0.0000 C   0  0  0  0  0  0  0  0  0  0  0  0
    0.0000    0.0000    0.0000 C   0  0  0  0  0  0  0  0  0  0  0  0
    0.0000    0.0000    0.0000 C   0  0  0  0  0  0  0  0  0  0  0  0
  1  2  1  0
  2  3  1  0
  3  4  2  0
  4  5  1  0
  5  6  2  0
  6  7  1  0
  7  8  2  0
  8  9  1  0
  9 10  1  0
  9 11  1  0
 11 12  3  0
 12 13  1  0
 13 14  2  0
 14 15  1  0
 14 16  1  0
 16 17  2  0
 17 18  1  0
 17 19  1  0
 19 20  2  0
 20 21  1  0
  5 22  1  0
 22 23  2  0
 23 24  1  0
 24 25  2  0
 25 26  1  0
 26 27  2  0
 27 28  1  0
  8  3  1  0
 20 13  1  0
 27 22  1  0
M  END
>  <pIC50>  (552) 
5.56

>  <ChEMBL_ID>  (552) 
CHEMBL3644517

>  <document_journal>  (552) 
None

>  <bao_endpoint>  (552) 
BAO_0000190

>  <potential_duplicate>  (552) 
None

>  <uo_units>  (552) 
UO_0000065

>  <canonical_smiles>  (552) 
COc1cc(ccc1C(C)C#Cc2c(C)nc(N)nc2N)c3ccccc3C

>  <parent_molecule_chembl_id>  (552) 
CHEMBL3644517

>  <assay_type>  (552) 
B

>  <src_id>  (552) 
37

>  <ligand_efficiency>  (552) 
{u'le': u'0.27', u'bei': u'14.92', u'sei': u'6.38', u'lle': u'0.85'}

>  <standard_flag>  (552) 
True

>  <molecule_chembl_id>  (552) 
CHEMBL3644517

>  <target_organism>  (552) 
Homo sapiens

>  <standard_units>  (552) 
nM

>  <record_id>  (552) 
2517572

>  <document_chembl_id>  (552) 
CHEMBL3639084

>  <bao_format>  (552) 
BAO_0000357

>  <data_validity_description>  (552) 
None

>  <activity_id>  (552) 
16275258

>  <standard_type>  (552) 
IC50

>  <target_chembl_id>  (552) 
CHEMBL202

>  <data_validity_comment>  (552) 
None

>  <published_value>  (552) 
2770

>  <document_year>  (552) 
2014

>  <target_pref_name>  (552) 
Dihydrofolate reductase

>  <assay_chembl_id>  (552) 
CHEMBL3707564

>  <standard_relation>  (552) 
=

>  <assay_description>  (552) 
BindingDB_Patents: Spectrophotometric Enzyme Assay. Compounds were evaluated in spectrophotometric enzyme assays using ChDHFR-TS and hDHFR. Inhibition constants (IC50) were measured (see Table 4). The lead compound, X, has an inhibition constant of 38 nM and modest selectivity (8-fold). All of the biphenyl compounds are more potent than the initial lead compound X and exhibit greater selectivity for the pathogenic enzyme. The most potent racemic compound, D(rac), a 5'-biphenyl derivative, is also the most selective of the racemic compounds (944-fold). The single R enantiomer of this 5'-biphenyl analog is the most potent (1.1 nM) and most selective (1273-fold) of all known compounds tested against the Cryptosporidium DHFR enzyme.

>  <published_relation>  (552) 
=

>  <standard_value>  (552) 
2770

>  <qudt_units>  (552) 
http://www.openphacts.org/units/Nanomolar

>  <target_tax_id>  (552) 
9606

>  <bao_label>  (552) 
single protein format

>  <published_units>  (552) 
nM

>  <pchembl_value>  (552) 
5.56

>  <published_type>  (552) 
IC50

>  <activity_comment>  (552) 
267763

$$$$

     RDKit          

 27 29  0  0  0  0  0  0  0  0999 V2000
    0.0000    0.0000    0.0000 C   0  0  0  0  0  0  0  0  0  0  0  0
    0.0000    0.0000    0.0000 C   0  0  0  0  0  0  0  0  0  0  0  0
    0.0000    0.0000    0.0000 C   0  0  0  0  0  0  0  0  0  0  0  0
    0.0000    0.0000    0.0000 N   0  0  0  0  0  0  0  0  0  0  0  0
    0.0000    0.0000    0.0000 C   0  0  0  0  0  0  0  0  0  0  0  0
    0.0000    0.0000    0.0000 N   0  0  0  0  0  0  0  0  0  0  0  0
    0.0000    0.0000    0.0000 N   0  0  0  0  0  0  0  0  0  0  0  0
    0.0000    0.0000    0.0000 C   0  0  0  0  0  0  0  0  0  0  0  0
    0.0000    0.0000    0.0000 N   0  0  0  0  0  0  0  0  0  0  0  0
    0.0000    0.0000    0.0000 C   0  0  0  0  0  0  0  0  0  0  0  0
    0.0000    0.0000    0.0000 C   0  0  0  0  0  0  0  0  0  0  0  0
    0.0000    0.0000    0.0000 C   0  0  0  0  0  0  0  0  0  0  0  0
    0.0000    0.0000    0.0000 C   0  0  0  0  0  0  0  0  0  0  0  0
    0.0000    0.0000    0.0000 C   0  0  0  0  0  0  0  0  0  0  0  0
    0.0000    0.0000    0.0000 C   0  0  0  0  0  0  0  0  0  0  0  0
    0.0000    0.0000    0.0000 C   0  0  0  0  0  0  0  0  0  0  0  0
    0.0000    0.0000    0.0000 O   0  0  0  0  0  0  0  0  0  0  0  0
    0.0000    0.0000    0.0000 C   0  0  0  0  0  0  0  0  0  0  0  0
    0.0000    0.0000    0.0000 C   0  0  0  0  0  0  0  0  0  0  0  0
    0.0000    0.0000    0.0000 C   0  0  0  0  0  0  0  0  0  0  0  0
    0.0000    0.0000    0.0000 C   0  0  0  0  0  0  0  0  0  0  0  0
    0.0000    0.0000    0.0000 C   0  0  0  0  0  0  0  0  0  0  0  0
    0.0000    0.0000    0.0000 C   0  0  0  0  0  0  0  0  0  0  0  0
    0.0000    0.0000    0.0000 C   0  0  0  0  0  0  0  0  0  0  0  0
    0.0000    0.0000    0.0000 C   0  0  0  0  0  0  0  0  0  0  0  0
    0.0000    0.0000    0.0000 C   0  0  0  0  0  0  0  0  0  0  0  0
    0.0000    0.0000    0.0000 C   0  0  0  0  0  0  0  0  0  0  0  0
  1  2  1  0
  2  3  1  0
  3  4  2  0
  4  5  1  0
  5  6  1  0
  5  7  2  0
  7  8  1  0
  8  9  1  0
  8 10  2  0
 10 11  1  0
 11 12  3  0
 12 13  1  0
 13 14  1  0
 14 15  2  0
 15 16  1  0
 16 17  1  0
 17 18  1  0
 16 19  2  0
 19 20  1  0
 20 21  2  0
 20 22  1  0
 22 23  2  0
 23 24  1  0
 24 25  2  0
 25 26  1  0
 26 27  2  0
 10  3  1  0
 21 14  1  0
 27 22  1  0
M  END
>  <pIC50>  (553) 
6.85

>  <ChEMBL_ID>  (553) 
CHEMBL1270633

>  <document_journal>  (553) 
None

>  <bao_endpoint>  (553) 
BAO_0000190

>  <potential_duplicate>  (553) 
None

>  <uo_units>  (553) 
UO_0000065

>  <canonical_smiles>  (553) 
CCc1nc(N)nc(N)c1C#CCc2cc(OC)cc(c2)c3ccccc3

>  <parent_molecule_chembl_id>  (553) 
CHEMBL1270633

>  <assay_type>  (553) 
B

>  <src_id>  (553) 
37

>  <ligand_efficiency>  (553) 
{u'le': u'0.35', u'bei': u'19.12', u'sei': u'7.87', u'lle': u'2.22'}

>  <standard_flag>  (553) 
True

>  <molecule_chembl_id>  (553) 
CHEMBL1270633

>  <target_organism>  (553) 
Homo sapiens

>  <standard_units>  (553) 
nM

>  <record_id>  (553) 
2517594

>  <document_chembl_id>  (553) 
CHEMBL3639084

>  <bao_format>  (553) 
BAO_0000357

>  <data_validity_description>  (553) 
None

>  <activity_id>  (553) 
16280846

>  <standard_type>  (553) 
IC50

>  <target_chembl_id>  (553) 
CHEMBL202

>  <data_validity_comment>  (553) 
None

>  <published_value>  (553) 
140

>  <document_year>  (553) 
2014

>  <target_pref_name>  (553) 
Dihydrofolate reductase

>  <assay_chembl_id>  (553) 
CHEMBL3707851

>  <standard_relation>  (553) 
=

>  <assay_description>  (553) 
BindingDB_Patents: Enzyme Inhibition Assay. Heterocyclic analogs of propargyl-linked inhibitors of the third generation analogs were evaluated in enzyme inhibition assays, assessed for S. aureus and S. pyogenes inhibition, and evaluated for mammalian cell toxicity.

>  <published_relation>  (553) 
=

>  <standard_value>  (553) 
140

>  <qudt_units>  (553) 
http://www.openphacts.org/units/Nanomolar

>  <target_tax_id>  (553) 
9606

>  <bao_label>  (553) 
single protein format

>  <published_units>  (553) 
nM

>  <pchembl_value>  (553) 
6.85

>  <published_type>  (553) 
IC50

>  <activity_comment>  (553) 
267787

$$$$

     RDKit          

 25 27  0  0  0  0  0  0  0  0999 V2000
    0.0000    0.0000    0.0000 C   0  0  0  0  0  0  0  0  0  0  0  0
    0.0000    0.0000    0.0000 C   0  0  0  0  0  0  0  0  0  0  0  0
    0.0000    0.0000    0.0000 C   0  0  0  0  0  0  0  0  0  0  0  0
    0.0000    0.0000    0.0000 N   0  0  0  0  0  0  0  0  0  0  0  0
    0.0000    0.0000    0.0000 C   0  0  0  0  0  0  0  0  0  0  0  0
    0.0000    0.0000    0.0000 N   0  0  0  0  0  0  0  0  0  0  0  0
    0.0000    0.0000    0.0000 N   0  0  0  0  0  0  0  0  0  0  0  0
    0.0000    0.0000    0.0000 C   0  0  0  0  0  0  0  0  0  0  0  0
    0.0000    0.0000    0.0000 N   0  0  0  0  0  0  0  0  0  0  0  0
    0.0000    0.0000    0.0000 C   0  0  0  0  0  0  0  0  0  0  0  0
    0.0000    0.0000    0.0000 C   0  0  0  0  0  0  0  0  0  0  0  0
    0.0000    0.0000    0.0000 C   0  0  0  0  0  0  0  0  0  0  0  0
    0.0000    0.0000    0.0000 C   0  0  0  0  0  0  0  0  0  0  0  0
    0.0000    0.0000    0.0000 C   0  0  0  0  0  0  0  0  0  0  0  0
    0.0000    0.0000    0.0000 C   0  0  0  0  0  0  0  0  0  0  0  0
    0.0000    0.0000    0.0000 C   0  0  0  0  0  0  0  0  0  0  0  0
    0.0000    0.0000    0.0000 C   0  0  0  0  0  0  0  0  0  0  0  0
    0.0000    0.0000    0.0000 C   0  0  0  0  0  0  0  0  0  0  0  0
    0.0000    0.0000    0.0000 C   0  0  0  0  0  0  0  0  0  0  0  0
    0.0000    0.0000    0.0000 C   0  0  0  0  0  0  0  0  0  0  0  0
    0.0000    0.0000    0.0000 C   0  0  0  0  0  0  0  0  0  0  0  0
    0.0000    0.0000    0.0000 N   0  0  0  0  0  0  0  0  0  0  0  0
    0.0000    0.0000    0.0000 C   0  0  0  0  0  0  0  0  0  0  0  0
    0.0000    0.0000    0.0000 N   0  0  0  0  0  0  0  0  0  0  0  0
    0.0000    0.0000    0.0000 C   0  0  0  0  0  0  0  0  0  0  0  0
  1  2  1  0
  2  3  1  0
  3  4  2  0
  4  5  1  0
  5  6  1  0
  5  7  2  0
  7  8  1  0
  8  9  1  0
  8 10  2  0
 10 11  1  0
 11 12  3  0
 12 13  1  0
 13 14  1  0
 14 15  2  0
 15 16  1  0
 16 17  2  0
 17 18  1  0
 18 19  2  0
 18 20  1  0
 20 21  2  0
 21 22  1  0
 22 23  2  0
 23 24  1  0
 24 25  2  0
 10  3  1  0
 19 14  1  0
 25 20  1  0
M  END
>  <pIC50>  (554) 
6.8

>  <ChEMBL_ID>  (554) 
CHEMBL3644523

>  <document_journal>  (554) 
None

>  <bao_endpoint>  (554) 
BAO_0000190

>  <potential_duplicate>  (554) 
None

>  <uo_units>  (554) 
UO_0000065

>  <canonical_smiles>  (554) 
CCc1nc(N)nc(N)c1C#CCc2cccc(c2)c3cncnc3

>  <parent_molecule_chembl_id>  (554) 
CHEMBL3644523

>  <assay_type>  (554) 
B

>  <src_id>  (554) 
37

>  <ligand_efficiency>  (554) 
{u'le': u'0.37', u'bei': u'20.57', u'sei': u'6.56', u'lle': u'3.93'}

>  <standard_flag>  (554) 
True

>  <molecule_chembl_id>  (554) 
CHEMBL3644523

>  <target_organism>  (554) 
Homo sapiens

>  <standard_units>  (554) 
nM

>  <record_id>  (554) 
2517580

>  <document_chembl_id>  (554) 
CHEMBL3639084

>  <bao_format>  (554) 
BAO_0000357

>  <data_validity_description>  (554) 
None

>  <activity_id>  (554) 
16304180

>  <standard_type>  (554) 
IC50

>  <target_chembl_id>  (554) 
CHEMBL202

>  <data_validity_comment>  (554) 
None

>  <published_value>  (554) 
160

>  <document_year>  (554) 
2014

>  <target_pref_name>  (554) 
Dihydrofolate reductase

>  <assay_chembl_id>  (554) 
CHEMBL3707851

>  <standard_relation>  (554) 
=

>  <assay_description>  (554) 
BindingDB_Patents: Enzyme Inhibition Assay. Heterocyclic analogs of propargyl-linked inhibitors of the third generation analogs were evaluated in enzyme inhibition assays, assessed for S. aureus and S. pyogenes inhibition, and evaluated for mammalian cell toxicity.

>  <published_relation>  (554) 
=

>  <standard_value>  (554) 
160

>  <qudt_units>  (554) 
http://www.openphacts.org/units/Nanomolar

>  <target_tax_id>  (554) 
9606

>  <bao_label>  (554) 
single protein format

>  <published_units>  (554) 
nM

>  <pchembl_value>  (554) 
6.8

>  <published_type>  (554) 
IC50

>  <activity_comment>  (554) 
267797

$$$$

     RDKit          

 27 29  0  0  0  0  0  0  0  0999 V2000
    0.0000    0.0000    0.0000 C   0  0  0  0  0  0  0  0  0  0  0  0
    0.0000    0.0000    0.0000 C   0  0  0  0  0  0  0  0  0  0  0  0
    0.0000    0.0000    0.0000 C   0  0  0  0  0  0  0  0  0  0  0  0
    0.0000    0.0000    0.0000 N   0  0  0  0  0  0  0  0  0  0  0  0
    0.0000    0.0000    0.0000 C   0  0  0  0  0  0  0  0  0  0  0  0
    0.0000    0.0000    0.0000 N   0  0  0  0  0  0  0  0  0  0  0  0
    0.0000    0.0000    0.0000 N   0  0  0  0  0  0  0  0  0  0  0  0
    0.0000    0.0000    0.0000 C   0  0  0  0  0  0  0  0  0  0  0  0
    0.0000    0.0000    0.0000 N   0  0  0  0  0  0  0  0  0  0  0  0
    0.0000    0.0000    0.0000 C   0  0  0  0  0  0  0  0  0  0  0  0
    0.0000    0.0000    0.0000 C   0  0  0  0  0  0  0  0  0  0  0  0
    0.0000    0.0000    0.0000 C   0  0  0  0  0  0  0  0  0  0  0  0
    0.0000    0.0000    0.0000 C   0  0  0  0  0  0  0  0  0  0  0  0
    0.0000    0.0000    0.0000 C   0  0  0  0  0  0  0  0  0  0  0  0
    0.0000    0.0000    0.0000 C   0  0  0  0  0  0  0  0  0  0  0  0
    0.0000    0.0000    0.0000 C   0  0  0  0  0  0  0  0  0  0  0  0
    0.0000    0.0000    0.0000 C   0  0  0  0  0  0  0  0  0  0  0  0
    0.0000    0.0000    0.0000 C   0  0  0  0  0  0  0  0  0  0  0  0
    0.0000    0.0000    0.0000 C   0  0  0  0  0  0  0  0  0  0  0  0
    0.0000    0.0000    0.0000 O   0  0  0  0  0  0  0  0  0  0  0  0
    0.0000    0.0000    0.0000 C   0  0  0  0  0  0  0  0  0  0  0  0
    0.0000    0.0000    0.0000 C   0  0  0  0  0  0  0  0  0  0  0  0
    0.0000    0.0000    0.0000 C   0  0  0  0  0  0  0  0  0  0  0  0
    0.0000    0.0000    0.0000 C   0  0  0  0  0  0  0  0  0  0  0  0
    0.0000    0.0000    0.0000 N   0  0  0  0  0  0  0  0  0  0  0  0
    0.0000    0.0000    0.0000 C   0  0  0  0  0  0  0  0  0  0  0  0
    0.0000    0.0000    0.0000 C   0  0  0  0  0  0  0  0  0  0  0  0
  1  2  1  0
  2  3  1  0
  3  4  2  0
  4  5  1  0
  5  6  1  0
  5  7  2  0
  7  8  1  0
  8  9  1  0
  8 10  2  0
 10 11  1  0
 11 12  3  0
 12 13  1  0
 13 14  1  0
 14 15  2  0
 15 16  1  0
 16 17  2  0
 17 18  1  0
 18 19  2  0
 19 20  1  0
 20 21  1  0
 16 22  1  0
 22 23  2  0
 23 24  1  0
 24 25  2  0
 25 26  1  0
 26 27  2  0
 10  3  1  0
 19 14  1  0
 27 22  1  0
M  END
>  <pIC50>  (555) 
6.48

>  <ChEMBL_ID>  (555) 
CHEMBL3526249

>  <document_journal>  (555) 
None

>  <bao_endpoint>  (555) 
BAO_0000190

>  <potential_duplicate>  (555) 
None

>  <uo_units>  (555) 
UO_0000065

>  <canonical_smiles>  (555) 
CCc1nc(N)nc(N)c1C#CCc2cc(ccc2OC)c3ccncc3

>  <parent_molecule_chembl_id>  (555) 
CHEMBL3526249

>  <assay_type>  (555) 
B

>  <src_id>  (555) 
37

>  <ligand_efficiency>  (555) 
{u'le': u'0.33', u'bei': u'18.03', u'sei': u'6.49', u'lle': u'3'}

>  <standard_flag>  (555) 
True

>  <molecule_chembl_id>  (555) 
CHEMBL3526249

>  <target_organism>  (555) 
Homo sapiens

>  <standard_units>  (555) 
nM

>  <record_id>  (555) 
2517576

>  <document_chembl_id>  (555) 
CHEMBL3639084

>  <bao_format>  (555) 
BAO_0000357

>  <data_validity_description>  (555) 
None

>  <activity_id>  (555) 
16312866

>  <standard_type>  (555) 
IC50

>  <target_chembl_id>  (555) 
CHEMBL202

>  <data_validity_comment>  (555) 
None

>  <published_value>  (555) 
330

>  <document_year>  (555) 
2014

>  <target_pref_name>  (555) 
Dihydrofolate reductase

>  <assay_chembl_id>  (555) 
CHEMBL3707851

>  <standard_relation>  (555) 
=

>  <assay_description>  (555) 
BindingDB_Patents: Enzyme Inhibition Assay. Heterocyclic analogs of propargyl-linked inhibitors of the third generation analogs were evaluated in enzyme inhibition assays, assessed for S. aureus and S. pyogenes inhibition, and evaluated for mammalian cell toxicity.

>  <published_relation>  (555) 
=

>  <standard_value>  (555) 
330

>  <qudt_units>  (555) 
http://www.openphacts.org/units/Nanomolar

>  <target_tax_id>  (555) 
9606

>  <bao_label>  (555) 
single protein format

>  <published_units>  (555) 
nM

>  <pchembl_value>  (555) 
6.48

>  <published_type>  (555) 
IC50

>  <activity_comment>  (555) 
267792

$$$$

     RDKit          

 28 30  0  0  0  0  0  0  0  0999 V2000
    0.0000    0.0000    0.0000 C   0  0  0  0  0  0  0  0  0  0  0  0
    0.0000    0.0000    0.0000 C   0  0  0  0  0  0  0  0  0  0  0  0
    0.0000    0.0000    0.0000 C   0  0  0  0  0  0  0  0  0  0  0  0
    0.0000    0.0000    0.0000 N   0  0  0  0  0  0  0  0  0  0  0  0
    0.0000    0.0000    0.0000 C   0  0  0  0  0  0  0  0  0  0  0  0
    0.0000    0.0000    0.0000 N   0  0  0  0  0  0  0  0  0  0  0  0
    0.0000    0.0000    0.0000 N   0  0  0  0  0  0  0  0  0  0  0  0
    0.0000    0.0000    0.0000 C   0  0  0  0  0  0  0  0  0  0  0  0
    0.0000    0.0000    0.0000 N   0  0  0  0  0  0  0  0  0  0  0  0
    0.0000    0.0000    0.0000 C   0  0  0  0  0  0  0  0  0  0  0  0
    0.0000    0.0000    0.0000 C   0  0  0  0  0  0  0  0  0  0  0  0
    0.0000    0.0000    0.0000 C   0  0  0  0  0  0  0  0  0  0  0  0
    0.0000    0.0000    0.0000 C   0  0  0  0  0  0  0  0  0  0  0  0
    0.0000    0.0000    0.0000 C   0  0  0  0  0  0  0  0  0  0  0  0
    0.0000    0.0000    0.0000 C   0  0  0  0  0  0  0  0  0  0  0  0
    0.0000    0.0000    0.0000 C   0  0  0  0  0  0  0  0  0  0  0  0
    0.0000    0.0000    0.0000 C   0  0  0  0  0  0  0  0  0  0  0  0
    0.0000    0.0000    0.0000 C   0  0  0  0  0  0  0  0  0  0  0  0
    0.0000    0.0000    0.0000 C   0  0  0  0  0  0  0  0  0  0  0  0
    0.0000    0.0000    0.0000 C   0  0  0  0  0  0  0  0  0  0  0  0
    0.0000    0.0000    0.0000 O   0  0  0  0  0  0  0  0  0  0  0  0
    0.0000    0.0000    0.0000 C   0  0  0  0  0  0  0  0  0  0  0  0
    0.0000    0.0000    0.0000 C   0  0  0  0  0  0  0  0  0  0  0  0
    0.0000    0.0000    0.0000 C   0  0  0  0  0  0  0  0  0  0  0  0
    0.0000    0.0000    0.0000 C   0  0  0  0  0  0  0  0  0  0  0  0
    0.0000    0.0000    0.0000 C   0  0  0  0  0  0  0  0  0  0  0  0
    0.0000    0.0000    0.0000 C   0  0  0  0  0  0  0  0  0  0  0  0
    0.0000    0.0000    0.0000 C   0  0  0  0  0  0  0  0  0  0  0  0
  1  2  1  0
  2  3  1  0
  3  4  2  0
  4  5  1  0
  5  6  1  0
  5  7  2  0
  7  8  1  0
  8  9  1  0
  8 10  2  0
 10 11  1  0
 11 12  3  0
 12 13  1  0
 13 14  1  0
 13 15  1  0
 15 16  2  0
 16 17  1  0
 17 18  2  0
 18 19  1  0
 19 20  2  0
 20 21  1  0
 21 22  1  0
 17 23  1  0
 23 24  2  0
 24 25  1  0
 25 26  2  0
 26 27  1  0
 27 28  2  0
 10  3  1  0
 20 15  1  0
 28 23  1  0
M  END
>  <pIC50>  (556) 
7.0

>  <ChEMBL_ID>  (556) 
CHEMBL3644520

>  <document_journal>  (556) 
None

>  <bao_endpoint>  (556) 
BAO_0000190

>  <potential_duplicate>  (556) 
None

>  <uo_units>  (556) 
UO_0000065

>  <canonical_smiles>  (556) 
CCc1nc(N)nc(N)c1C#CC(C)c2cc(ccc2OC)c3ccccc3

>  <parent_molecule_chembl_id>  (556) 
CHEMBL3644520

>  <assay_type>  (556) 
B

>  <src_id>  (556) 
37

>  <ligand_efficiency>  (556) 
{u'le': u'0.34', u'bei': u'18.79', u'sei': u'8.04', u'lle': u'2.11'}

>  <standard_flag>  (556) 
True

>  <molecule_chembl_id>  (556) 
CHEMBL3644520

>  <target_organism>  (556) 
Homo sapiens

>  <standard_units>  (556) 
nM

>  <record_id>  (556) 
2517575

>  <document_chembl_id>  (556) 
CHEMBL3639084

>  <bao_format>  (556) 
BAO_0000357

>  <data_validity_description>  (556) 
None

>  <activity_id>  (556) 
16314872

>  <standard_type>  (556) 
IC50

>  <target_chembl_id>  (556) 
CHEMBL202

>  <data_validity_comment>  (556) 
None

>  <published_value>  (556) 
100

>  <document_year>  (556) 
2014

>  <target_pref_name>  (556) 
Dihydrofolate reductase

>  <assay_chembl_id>  (556) 
CHEMBL3707851

>  <standard_relation>  (556) 
=

>  <assay_description>  (556) 
BindingDB_Patents: Enzyme Inhibition Assay. Heterocyclic analogs of propargyl-linked inhibitors of the third generation analogs were evaluated in enzyme inhibition assays, assessed for S. aureus and S. pyogenes inhibition, and evaluated for mammalian cell toxicity.

>  <published_relation>  (556) 
=

>  <standard_value>  (556) 
100

>  <qudt_units>  (556) 
http://www.openphacts.org/units/Nanomolar

>  <target_tax_id>  (556) 
9606

>  <bao_label>  (556) 
single protein format

>  <published_units>  (556) 
nM

>  <pchembl_value>  (556) 
7

>  <published_type>  (556) 
IC50

>  <activity_comment>  (556) 
267789

$$$$

     RDKit          

 29 31  0  0  0  0  0  0  0  0999 V2000
    0.0000    0.0000    0.0000 C   0  0  0  0  0  0  0  0  0  0  0  0
    0.0000    0.0000    0.0000 O   0  0  0  0  0  0  0  0  0  0  0  0
    0.0000    0.0000    0.0000 C   0  0  0  0  0  0  0  0  0  0  0  0
    0.0000    0.0000    0.0000 C   0  0  0  0  0  0  0  0  0  0  0  0
    0.0000    0.0000    0.0000 C   0  0  0  0  0  0  0  0  0  0  0  0
    0.0000    0.0000    0.0000 C   0  0  0  0  0  0  0  0  0  0  0  0
    0.0000    0.0000    0.0000 C   0  0  0  0  0  0  0  0  0  0  0  0
    0.0000    0.0000    0.0000 C   0  0  0  0  0  0  0  0  0  0  0  0
    0.0000    0.0000    0.0000 C   0  0  0  0  0  0  0  0  0  0  0  0
    0.0000    0.0000    0.0000 C   0  0  0  0  0  0  0  0  0  0  0  0
    0.0000    0.0000    0.0000 C   0  0  0  0  0  0  0  0  0  0  0  0
    0.0000    0.0000    0.0000 C   0  0  0  0  0  0  0  0  0  0  0  0
    0.0000    0.0000    0.0000 C   0  0  0  0  0  0  0  0  0  0  0  0
    0.0000    0.0000    0.0000 C   0  0  0  0  0  0  0  0  0  0  0  0
    0.0000    0.0000    0.0000 C   0  0  0  0  0  0  0  0  0  0  0  0
    0.0000    0.0000    0.0000 N   0  0  0  0  0  0  0  0  0  0  0  0
    0.0000    0.0000    0.0000 C   0  0  0  0  0  0  0  0  0  0  0  0
    0.0000    0.0000    0.0000 N   0  0  0  0  0  0  0  0  0  0  0  0
    0.0000    0.0000    0.0000 N   0  0  0  0  0  0  0  0  0  0  0  0
    0.0000    0.0000    0.0000 C   0  0  0  0  0  0  0  0  0  0  0  0
    0.0000    0.0000    0.0000 N   0  0  0  0  0  0  0  0  0  0  0  0
    0.0000    0.0000    0.0000 C   0  0  0  0  0  0  0  0  0  0  0  0
    0.0000    0.0000    0.0000 C   0  0  0  0  0  0  0  0  0  0  0  0
    0.0000    0.0000    0.0000 C   0  0  0  0  0  0  0  0  0  0  0  0
    0.0000    0.0000    0.0000 C   0  0  0  0  0  0  0  0  0  0  0  0
    0.0000    0.0000    0.0000 C   0  0  0  0  0  0  0  0  0  0  0  0
    0.0000    0.0000    0.0000 C   0  0  0  0  0  0  0  0  0  0  0  0
    0.0000    0.0000    0.0000 C   0  0  0  0  0  0  0  0  0  0  0  0
    0.0000    0.0000    0.0000 C   0  0  0  0  0  0  0  0  0  0  0  0
  1  2  1  0
  2  3  1  0
  3  4  2  0
  4  5  1  0
  5  6  2  0
  6  7  1  0
  7  8  2  0
  8  9  1  0
  9 10  1  0
  9 11  1  0
 11 12  3  0
 12 13  1  0
 13 14  2  0
 14 15  1  0
 14 16  1  0
 16 17  2  0
 17 18  1  0
 17 19  1  0
 19 20  2  0
 20 21  1  0
  5 22  1  0
 22 23  2  0
 23 24  1  0
 23 25  1  0
 25 26  2  0
 26 27  1  0
 27 28  2  0
 28 29  1  0
  8  3  1  0
 20 13  1  0
 28 22  1  0
M  END
>  <pIC50>  (557) 
5.47

>  <ChEMBL_ID>  (557) 
CHEMBL3644518

>  <document_journal>  (557) 
None

>  <bao_endpoint>  (557) 
BAO_0000190

>  <potential_duplicate>  (557) 
None

>  <uo_units>  (557) 
UO_0000065

>  <canonical_smiles>  (557) 
COc1cc(ccc1C(C)C#Cc2c(C)nc(N)nc2N)c3c(C)cccc3C

>  <parent_molecule_chembl_id>  (557) 
CHEMBL3644518

>  <assay_type>  (557) 
B

>  <src_id>  (557) 
37

>  <ligand_efficiency>  (557) 
{u'le': u'0.26', u'bei': u'14.16', u'sei': u'6.29', u'lle': u'0.28'}

>  <standard_flag>  (557) 
True

>  <molecule_chembl_id>  (557) 
CHEMBL3644518

>  <target_organism>  (557) 
Homo sapiens

>  <standard_units>  (557) 
nM

>  <record_id>  (557) 
2517573

>  <document_chembl_id>  (557) 
CHEMBL3639084

>  <bao_format>  (557) 
BAO_0000357

>  <data_validity_description>  (557) 
None

>  <activity_id>  (557) 
16317380

>  <standard_type>  (557) 
IC50

>  <target_chembl_id>  (557) 
CHEMBL202

>  <data_validity_comment>  (557) 
None

>  <published_value>  (557) 
3370

>  <document_year>  (557) 
2014

>  <target_pref_name>  (557) 
Dihydrofolate reductase

>  <assay_chembl_id>  (557) 
CHEMBL3707564

>  <standard_relation>  (557) 
=

>  <assay_description>  (557) 
BindingDB_Patents: Spectrophotometric Enzyme Assay. Compounds were evaluated in spectrophotometric enzyme assays using ChDHFR-TS and hDHFR. Inhibition constants (IC50) were measured (see Table 4). The lead compound, X, has an inhibition constant of 38 nM and modest selectivity (8-fold). All of the biphenyl compounds are more potent than the initial lead compound X and exhibit greater selectivity for the pathogenic enzyme. The most potent racemic compound, D(rac), a 5'-biphenyl derivative, is also the most selective of the racemic compounds (944-fold). The single R enantiomer of this 5'-biphenyl analog is the most potent (1.1 nM) and most selective (1273-fold) of all known compounds tested against the Cryptosporidium DHFR enzyme.

>  <published_relation>  (557) 
=

>  <standard_value>  (557) 
3370

>  <qudt_units>  (557) 
http://www.openphacts.org/units/Nanomolar

>  <target_tax_id>  (557) 
9606

>  <bao_label>  (557) 
single protein format

>  <published_units>  (557) 
nM

>  <pchembl_value>  (557) 
5.47

>  <published_type>  (557) 
IC50

>  <activity_comment>  (557) 
267764

$$$$

     RDKit          

 33 35  0  0  0  0  0  0  0  0999 V2000
    0.0000    0.0000    0.0000 C   0  0  0  0  0  0  0  0  0  0  0  0
    0.0000    0.0000    0.0000 O   0  0  0  0  0  0  0  0  0  0  0  0
    0.0000    0.0000    0.0000 C   0  0  0  0  0  0  0  0  0  0  0  0
    0.0000    0.0000    0.0000 C   0  0  0  0  0  0  0  0  0  0  0  0
    0.0000    0.0000    0.0000 C   0  0  0  0  0  0  0  0  0  0  0  0
    0.0000    0.0000    0.0000 C   0  0  0  0  0  0  0  0  0  0  0  0
    0.0000    0.0000    0.0000 C   0  0  0  0  0  0  0  0  0  0  0  0
    0.0000    0.0000    0.0000 C   0  0  0  0  0  0  0  0  0  0  0  0
    0.0000    0.0000    0.0000 C   0  0  0  0  0  0  0  0  0  0  0  0
    0.0000    0.0000    0.0000 C   0  0  0  0  0  0  0  0  0  0  0  0
    0.0000    0.0000    0.0000 C   0  0  0  0  0  0  0  0  0  0  0  0
    0.0000    0.0000    0.0000 C   0  0  0  0  0  0  0  0  0  0  0  0
    0.0000    0.0000    0.0000 C   0  0  0  0  0  0  0  0  0  0  0  0
    0.0000    0.0000    0.0000 C   0  0  0  0  0  0  0  0  0  0  0  0
    0.0000    0.0000    0.0000 C   0  0  0  0  0  0  0  0  0  0  0  0
    0.0000    0.0000    0.0000 N   0  0  0  0  0  0  0  0  0  0  0  0
    0.0000    0.0000    0.0000 C   0  0  0  0  0  0  0  0  0  0  0  0
    0.0000    0.0000    0.0000 N   0  0  0  0  0  0  0  0  0  0  0  0
    0.0000    0.0000    0.0000 N   0  0  0  0  0  0  0  0  0  0  0  0
    0.0000    0.0000    0.0000 C   0  0  0  0  0  0  0  0  0  0  0  0
    0.0000    0.0000    0.0000 N   0  0  0  0  0  0  0  0  0  0  0  0
    0.0000    0.0000    0.0000 C   0  0  0  0  0  0  0  0  0  0  0  0
    0.0000    0.0000    0.0000 C   0  0  0  0  0  0  0  0  0  0  0  0
    0.0000    0.0000    0.0000 C   0  0  0  0  0  0  0  0  0  0  0  0
    0.0000    0.0000    0.0000 C   0  0  0  0  0  0  0  0  0  0  0  0
    0.0000    0.0000    0.0000 C   0  0  0  0  0  0  0  0  0  0  0  0
    0.0000    0.0000    0.0000 C   0  0  0  0  0  0  0  0  0  0  0  0
    0.0000    0.0000    0.0000 C   0  0  0  0  0  0  0  0  0  0  0  0
    0.0000    0.0000    0.0000 C   0  0  0  0  0  0  0  0  0  0  0  0
    0.0000    0.0000    0.0000 C   0  0  0  0  0  0  0  0  0  0  0  0
    0.0000    0.0000    0.0000 C   0  0  0  0  0  0  0  0  0  0  0  0
    0.0000    0.0000    0.0000 C   0  0  0  0  0  0  0  0  0  0  0  0
    0.0000    0.0000    0.0000 C   0  0  0  0  0  0  0  0  0  0  0  0
  1  2  1  0
  2  3  1  0
  3  4  2  0
  4  5  1  0
  5  6  2  0
  6  7  1  0
  7  8  2  0
  8  9  1  0
  9 10  1  0
  9 11  1  0
 11 12  3  0
 12 13  1  0
 13 14  2  0
 14 15  1  0
 14 16  1  0
 16 17  2  0
 17 18  1  0
 17 19  1  0
 19 20  2  0
 20 21  1  0
  5 22  1  0
 22 23  2  0
 23 24  1  0
 24 25  2  0
 25 26  1  0
 26 27  2  0
 27 28  1  0
 28 29  1  0
 28 30  1  0
 23 31  1  0
 31 32  1  0
 31 33  1  0
  8  3  1  0
 20 13  1  0
 27 22  1  0
M  END
>  <pIC50>  (558) 
5.38

>  <ChEMBL_ID>  (558) 
CHEMBL3644519

>  <document_journal>  (558) 
None

>  <bao_endpoint>  (558) 
BAO_0000190

>  <potential_duplicate>  (558) 
None

>  <uo_units>  (558) 
UO_0000065

>  <canonical_smiles>  (558) 
COc1cc(ccc1C(C)C#Cc2c(C)nc(N)nc2N)c3c(cccc3C(C)C)C(C)C

>  <parent_molecule_chembl_id>  (558) 
CHEMBL3644519

>  <assay_type>  (558) 
B

>  <src_id>  (558) 
37

>  <ligand_efficiency>  (558) 
{u'le': u'0.22', u'bei': u'12.15', u'sei': u'6.18', u'lle': u'-1.23'}

>  <standard_flag>  (558) 
True

>  <molecule_chembl_id>  (558) 
CHEMBL3644519

>  <target_organism>  (558) 
Homo sapiens

>  <standard_units>  (558) 
nM

>  <record_id>  (558) 
2517574

>  <document_chembl_id>  (558) 
CHEMBL3639084

>  <bao_format>  (558) 
BAO_0000357

>  <data_validity_description>  (558) 
None

>  <activity_id>  (558) 
16321957

>  <standard_type>  (558) 
IC50

>  <target_chembl_id>  (558) 
CHEMBL202

>  <data_validity_comment>  (558) 
None

>  <published_value>  (558) 
4200

>  <document_year>  (558) 
2014

>  <target_pref_name>  (558) 
Dihydrofolate reductase

>  <assay_chembl_id>  (558) 
CHEMBL3707564

>  <standard_relation>  (558) 
=

>  <assay_description>  (558) 
BindingDB_Patents: Spectrophotometric Enzyme Assay. Compounds were evaluated in spectrophotometric enzyme assays using ChDHFR-TS and hDHFR. Inhibition constants (IC50) were measured (see Table 4). The lead compound, X, has an inhibition constant of 38 nM and modest selectivity (8-fold). All of the biphenyl compounds are more potent than the initial lead compound X and exhibit greater selectivity for the pathogenic enzyme. The most potent racemic compound, D(rac), a 5'-biphenyl derivative, is also the most selective of the racemic compounds (944-fold). The single R enantiomer of this 5'-biphenyl analog is the most potent (1.1 nM) and most selective (1273-fold) of all known compounds tested against the Cryptosporidium DHFR enzyme.

>  <published_relation>  (558) 
=

>  <standard_value>  (558) 
4200

>  <qudt_units>  (558) 
http://www.openphacts.org/units/Nanomolar

>  <target_tax_id>  (558) 
9606

>  <bao_label>  (558) 
single protein format

>  <published_units>  (558) 
nM

>  <pchembl_value>  (558) 
5.38

>  <published_type>  (558) 
IC50

>  <activity_comment>  (558) 
267765

$$$$

     RDKit          

 25 27  0  0  0  0  0  0  0  0999 V2000
    0.0000    0.0000    0.0000 C   0  0  0  0  0  0  0  0  0  0  0  0
    0.0000    0.0000    0.0000 C   0  0  0  0  0  0  0  0  0  0  0  0
    0.0000    0.0000    0.0000 C   0  0  0  0  0  0  0  0  0  0  0  0
    0.0000    0.0000    0.0000 N   0  0  0  0  0  0  0  0  0  0  0  0
    0.0000    0.0000    0.0000 C   0  0  0  0  0  0  0  0  0  0  0  0
    0.0000    0.0000    0.0000 N   0  0  0  0  0  0  0  0  0  0  0  0
    0.0000    0.0000    0.0000 N   0  0  0  0  0  0  0  0  0  0  0  0
    0.0000    0.0000    0.0000 C   0  0  0  0  0  0  0  0  0  0  0  0
    0.0000    0.0000    0.0000 N   0  0  0  0  0  0  0  0  0  0  0  0
    0.0000    0.0000    0.0000 C   0  0  0  0  0  0  0  0  0  0  0  0
    0.0000    0.0000    0.0000 C   0  0  0  0  0  0  0  0  0  0  0  0
    0.0000    0.0000    0.0000 C   0  0  0  0  0  0  0  0  0  0  0  0
    0.0000    0.0000    0.0000 C   0  0  0  0  0  0  0  0  0  0  0  0
    0.0000    0.0000    0.0000 C   0  0  0  0  0  0  0  0  0  0  0  0
    0.0000    0.0000    0.0000 C   0  0  0  0  0  0  0  0  0  0  0  0
    0.0000    0.0000    0.0000 C   0  0  0  0  0  0  0  0  0  0  0  0
    0.0000    0.0000    0.0000 C   0  0  0  0  0  0  0  0  0  0  0  0
    0.0000    0.0000    0.0000 C   0  0  0  0  0  0  0  0  0  0  0  0
    0.0000    0.0000    0.0000 C   0  0  0  0  0  0  0  0  0  0  0  0
    0.0000    0.0000    0.0000 C   0  0  0  0  0  0  0  0  0  0  0  0
    0.0000    0.0000    0.0000 C   0  0  0  0  0  0  0  0  0  0  0  0
    0.0000    0.0000    0.0000 C   0  0  0  0  0  0  0  0  0  0  0  0
    0.0000    0.0000    0.0000 C   0  0  0  0  0  0  0  0  0  0  0  0
    0.0000    0.0000    0.0000 C   0  0  0  0  0  0  0  0  0  0  0  0
    0.0000    0.0000    0.0000 C   0  0  0  0  0  0  0  0  0  0  0  0
  1  2  1  0
  2  3  1  0
  3  4  2  0
  4  5  1  0
  5  6  1  0
  5  7  2  0
  7  8  1  0
  8  9  1  0
  8 10  2  0
 10 11  1  0
 11 12  3  0
 12 13  1  0
 13 14  1  0
 14 15  2  0
 15 16  1  0
 16 17  2  0
 17 18  1  0
 18 19  2  0
 18 20  1  0
 20 21  2  0
 21 22  1  0
 22 23  2  0
 23 24  1  0
 24 25  2  0
 10  3  1  0
 19 14  1  0
 25 20  1  0
M  END
>  <pIC50>  (559) 
6.54

>  <ChEMBL_ID>  (559) 
CHEMBL1270439

>  <document_journal>  (559) 
None

>  <bao_endpoint>  (559) 
BAO_0000190

>  <potential_duplicate>  (559) 
None

>  <uo_units>  (559) 
UO_0000065

>  <canonical_smiles>  (559) 
CCc1nc(N)nc(N)c1C#CCc2cccc(c2)c3ccccc3

>  <parent_molecule_chembl_id>  (559) 
CHEMBL1270439

>  <assay_type>  (559) 
B

>  <src_id>  (559) 
37

>  <ligand_efficiency>  (559) 
{u'le': u'0.36', u'bei': u'19.91', u'sei': u'8.4', u'lle': u'1.89'}

>  <standard_flag>  (559) 
True

>  <molecule_chembl_id>  (559) 
CHEMBL1270439

>  <target_organism>  (559) 
Homo sapiens

>  <standard_units>  (559) 
nM

>  <record_id>  (559) 
2517592

>  <document_chembl_id>  (559) 
CHEMBL3639084

>  <bao_format>  (559) 
BAO_0000357

>  <data_validity_description>  (559) 
None

>  <activity_id>  (559) 
16328857

>  <standard_type>  (559) 
IC50

>  <target_chembl_id>  (559) 
CHEMBL202

>  <data_validity_comment>  (559) 
None

>  <published_value>  (559) 
290

>  <document_year>  (559) 
2014

>  <target_pref_name>  (559) 
Dihydrofolate reductase

>  <assay_chembl_id>  (559) 
CHEMBL3707851

>  <standard_relation>  (559) 
=

>  <assay_description>  (559) 
BindingDB_Patents: Enzyme Inhibition Assay. Heterocyclic analogs of propargyl-linked inhibitors of the third generation analogs were evaluated in enzyme inhibition assays, assessed for S. aureus and S. pyogenes inhibition, and evaluated for mammalian cell toxicity.

>  <published_relation>  (559) 
=

>  <standard_value>  (559) 
290

>  <qudt_units>  (559) 
http://www.openphacts.org/units/Nanomolar

>  <target_tax_id>  (559) 
9606

>  <bao_label>  (559) 
single protein format

>  <published_units>  (559) 
nM

>  <pchembl_value>  (559) 
6.54

>  <published_type>  (559) 
IC50

>  <activity_comment>  (559) 
267786

$$$$

     RDKit          

 27 29  0  0  0  0  0  0  0  0999 V2000
    0.0000    0.0000    0.0000 C   0  0  0  0  0  0  0  0  0  0  0  0
    0.0000    0.0000    0.0000 C   0  0  0  0  0  0  0  0  0  0  0  0
    0.0000    0.0000    0.0000 C   0  0  0  0  0  0  0  0  0  0  0  0
    0.0000    0.0000    0.0000 N   0  0  0  0  0  0  0  0  0  0  0  0
    0.0000    0.0000    0.0000 C   0  0  0  0  0  0  0  0  0  0  0  0
    0.0000    0.0000    0.0000 N   0  0  0  0  0  0  0  0  0  0  0  0
    0.0000    0.0000    0.0000 N   0  0  0  0  0  0  0  0  0  0  0  0
    0.0000    0.0000    0.0000 C   0  0  0  0  0  0  0  0  0  0  0  0
    0.0000    0.0000    0.0000 N   0  0  0  0  0  0  0  0  0  0  0  0
    0.0000    0.0000    0.0000 C   0  0  0  0  0  0  0  0  0  0  0  0
    0.0000    0.0000    0.0000 C   0  0  0  0  0  0  0  0  0  0  0  0
    0.0000    0.0000    0.0000 C   0  0  0  0  0  0  0  0  0  0  0  0
    0.0000    0.0000    0.0000 C   0  0  0  0  0  0  0  0  0  0  0  0
    0.0000    0.0000    0.0000 C   0  0  0  0  0  0  0  0  0  0  0  0
    0.0000    0.0000    0.0000 C   0  0  0  0  0  0  0  0  0  0  0  0
    0.0000    0.0000    0.0000 C   0  0  0  0  0  0  0  0  0  0  0  0
    0.0000    0.0000    0.0000 O   0  0  0  0  0  0  0  0  0  0  0  0
    0.0000    0.0000    0.0000 C   0  0  0  0  0  0  0  0  0  0  0  0
    0.0000    0.0000    0.0000 C   0  0  0  0  0  0  0  0  0  0  0  0
    0.0000    0.0000    0.0000 C   0  0  0  0  0  0  0  0  0  0  0  0
    0.0000    0.0000    0.0000 C   0  0  0  0  0  0  0  0  0  0  0  0
    0.0000    0.0000    0.0000 C   0  0  0  0  0  0  0  0  0  0  0  0
    0.0000    0.0000    0.0000 C   0  0  0  0  0  0  0  0  0  0  0  0
    0.0000    0.0000    0.0000 C   0  0  0  0  0  0  0  0  0  0  0  0
    0.0000    0.0000    0.0000 N   0  0  0  0  0  0  0  0  0  0  0  0
    0.0000    0.0000    0.0000 C   0  0  0  0  0  0  0  0  0  0  0  0
    0.0000    0.0000    0.0000 C   0  0  0  0  0  0  0  0  0  0  0  0
  1  2  1  0
  2  3  1  0
  3  4  2  0
  4  5  1  0
  5  6  1  0
  5  7  2  0
  7  8  1  0
  8  9  1  0
  8 10  2  0
 10 11  1  0
 11 12  3  0
 12 13  1  0
 13 14  1  0
 14 15  2  0
 15 16  1  0
 16 17  1  0
 17 18  1  0
 16 19  2  0
 19 20  1  0
 20 21  2  0
 20 22  1  0
 22 23  2  0
 23 24  1  0
 24 25  2  0
 25 26  1  0
 26 27  2  0
 10  3  1  0
 21 14  1  0
 27 22  1  0
M  END
>  <pIC50>  (560) 
7.22

>  <ChEMBL_ID>  (560) 
CHEMBL3219804

>  <document_journal>  (560) 
None

>  <bao_endpoint>  (560) 
BAO_0000190

>  <potential_duplicate>  (560) 
None

>  <uo_units>  (560) 
UO_0000065

>  <canonical_smiles>  (560) 
CCc1nc(N)nc(N)c1C#CCc2cc(OC)cc(c2)c3ccncc3

>  <parent_molecule_chembl_id>  (560) 
CHEMBL3219804

>  <assay_type>  (560) 
B

>  <src_id>  (560) 
37

>  <ligand_efficiency>  (560) 
{u'le': u'0.36', u'bei': u'20.07', u'sei': u'7.22', u'lle': u'3.73'}

>  <standard_flag>  (560) 
True

>  <molecule_chembl_id>  (560) 
CHEMBL3219804

>  <target_organism>  (560) 
Homo sapiens

>  <standard_units>  (560) 
nM

>  <record_id>  (560) 
2517577

>  <document_chembl_id>  (560) 
CHEMBL3639084

>  <bao_format>  (560) 
BAO_0000357

>  <data_validity_description>  (560) 
None

>  <activity_id>  (560) 
16340803

>  <standard_type>  (560) 
IC50

>  <target_chembl_id>  (560) 
CHEMBL202

>  <data_validity_comment>  (560) 
None

>  <published_value>  (560) 
61

>  <document_year>  (560) 
2014

>  <target_pref_name>  (560) 
Dihydrofolate reductase

>  <assay_chembl_id>  (560) 
CHEMBL3707851

>  <standard_relation>  (560) 
=

>  <assay_description>  (560) 
BindingDB_Patents: Enzyme Inhibition Assay. Heterocyclic analogs of propargyl-linked inhibitors of the third generation analogs were evaluated in enzyme inhibition assays, assessed for S. aureus and S. pyogenes inhibition, and evaluated for mammalian cell toxicity.

>  <published_relation>  (560) 
=

>  <standard_value>  (560) 
61

>  <qudt_units>  (560) 
http://www.openphacts.org/units/Nanomolar

>  <target_tax_id>  (560) 
9606

>  <bao_label>  (560) 
single protein format

>  <published_units>  (560) 
nM

>  <pchembl_value>  (560) 
7.22

>  <published_type>  (560) 
IC50

>  <activity_comment>  (560) 
267793

$$$$

     RDKit          

 25 27  0  0  0  0  0  0  0  0999 V2000
    0.0000    0.0000    0.0000 C   0  0  0  0  0  0  0  0  0  0  0  0
    0.0000    0.0000    0.0000 C   0  0  0  0  0  0  0  0  0  0  0  0
    0.0000    0.0000    0.0000 C   0  0  0  0  0  0  0  0  0  0  0  0
    0.0000    0.0000    0.0000 N   0  0  0  0  0  0  0  0  0  0  0  0
    0.0000    0.0000    0.0000 C   0  0  0  0  0  0  0  0  0  0  0  0
    0.0000    0.0000    0.0000 N   0  0  0  0  0  0  0  0  0  0  0  0
    0.0000    0.0000    0.0000 N   0  0  0  0  0  0  0  0  0  0  0  0
    0.0000    0.0000    0.0000 C   0  0  0  0  0  0  0  0  0  0  0  0
    0.0000    0.0000    0.0000 N   0  0  0  0  0  0  0  0  0  0  0  0
    0.0000    0.0000    0.0000 C   0  0  0  0  0  0  0  0  0  0  0  0
    0.0000    0.0000    0.0000 C   0  0  0  0  0  0  0  0  0  0  0  0
    0.0000    0.0000    0.0000 C   0  0  0  0  0  0  0  0  0  0  0  0
    0.0000    0.0000    0.0000 C   0  0  0  0  0  0  0  0  0  0  0  0
    0.0000    0.0000    0.0000 C   0  0  0  0  0  0  0  0  0  0  0  0
    0.0000    0.0000    0.0000 C   0  0  0  0  0  0  0  0  0  0  0  0
    0.0000    0.0000    0.0000 C   0  0  0  0  0  0  0  0  0  0  0  0
    0.0000    0.0000    0.0000 C   0  0  0  0  0  0  0  0  0  0  0  0
    0.0000    0.0000    0.0000 C   0  0  0  0  0  0  0  0  0  0  0  0
    0.0000    0.0000    0.0000 C   0  0  0  0  0  0  0  0  0  0  0  0
    0.0000    0.0000    0.0000 C   0  0  0  0  0  0  0  0  0  0  0  0
    0.0000    0.0000    0.0000 C   0  0  0  0  0  0  0  0  0  0  0  0
    0.0000    0.0000    0.0000 C   0  0  0  0  0  0  0  0  0  0  0  0
    0.0000    0.0000    0.0000 C   0  0  0  0  0  0  0  0  0  0  0  0
    0.0000    0.0000    0.0000 N   0  0  0  0  0  0  0  0  0  0  0  0
    0.0000    0.0000    0.0000 C   0  0  0  0  0  0  0  0  0  0  0  0
  1  2  1  0
  2  3  1  0
  3  4  2  0
  4  5  1  0
  5  6  1  0
  5  7  2  0
  7  8  1  0
  8  9  1  0
  8 10  2  0
 10 11  1  0
 11 12  3  0
 12 13  1  0
 13 14  1  0
 14 15  2  0
 15 16  1  0
 16 17  2  0
 17 18  1  0
 18 19  2  0
 18 20  1  0
 20 21  2  0
 21 22  1  0
 22 23  2  0
 23 24  1  0
 24 25  2  0
 10  3  1  0
 19 14  1  0
 25 20  1  0
M  END
>  <pIC50>  (561) 
6.54

>  <ChEMBL_ID>  (561) 
CHEMBL3644522

>  <document_journal>  (561) 
None

>  <bao_endpoint>  (561) 
BAO_0000190

>  <potential_duplicate>  (561) 
None

>  <uo_units>  (561) 
UO_0000065

>  <canonical_smiles>  (561) 
CCc1nc(N)nc(N)c1C#CCc2cccc(c2)c3cccnc3

>  <parent_molecule_chembl_id>  (561) 
CHEMBL3644522

>  <assay_type>  (561) 
B

>  <src_id>  (561) 
37

>  <ligand_efficiency>  (561) 
{u'le': u'0.36', u'bei': u'19.85', u'sei': u'7.21', u'lle': u'3.04'}

>  <standard_flag>  (561) 
True

>  <molecule_chembl_id>  (561) 
CHEMBL3644522

>  <target_organism>  (561) 
Homo sapiens

>  <standard_units>  (561) 
nM

>  <record_id>  (561) 
2517579

>  <document_chembl_id>  (561) 
CHEMBL3639084

>  <bao_format>  (561) 
BAO_0000357

>  <data_validity_description>  (561) 
None

>  <activity_id>  (561) 
16343648

>  <standard_type>  (561) 
IC50

>  <target_chembl_id>  (561) 
CHEMBL202

>  <data_validity_comment>  (561) 
None

>  <published_value>  (561) 
290

>  <document_year>  (561) 
2014

>  <target_pref_name>  (561) 
Dihydrofolate reductase

>  <assay_chembl_id>  (561) 
CHEMBL3707851

>  <standard_relation>  (561) 
=

>  <assay_description>  (561) 
BindingDB_Patents: Enzyme Inhibition Assay. Heterocyclic analogs of propargyl-linked inhibitors of the third generation analogs were evaluated in enzyme inhibition assays, assessed for S. aureus and S. pyogenes inhibition, and evaluated for mammalian cell toxicity.

>  <published_relation>  (561) 
=

>  <standard_value>  (561) 
290

>  <qudt_units>  (561) 
http://www.openphacts.org/units/Nanomolar

>  <target_tax_id>  (561) 
9606

>  <bao_label>  (561) 
single protein format

>  <published_units>  (561) 
nM

>  <pchembl_value>  (561) 
6.54

>  <published_type>  (561) 
IC50

>  <activity_comment>  (561) 
267796

$$$$

     RDKit          

 25 27  0  0  0  0  0  0  0  0999 V2000
    0.0000    0.0000    0.0000 C   0  0  0  0  0  0  0  0  0  0  0  0
    0.0000    0.0000    0.0000 C   0  0  0  0  0  0  0  0  0  0  0  0
    0.0000    0.0000    0.0000 C   0  0  0  0  0  0  0  0  0  0  0  0
    0.0000    0.0000    0.0000 N   0  0  0  0  0  0  0  0  0  0  0  0
    0.0000    0.0000    0.0000 C   0  0  0  0  0  0  0  0  0  0  0  0
    0.0000    0.0000    0.0000 N   0  0  0  0  0  0  0  0  0  0  0  0
    0.0000    0.0000    0.0000 N   0  0  0  0  0  0  0  0  0  0  0  0
    0.0000    0.0000    0.0000 C   0  0  0  0  0  0  0  0  0  0  0  0
    0.0000    0.0000    0.0000 N   0  0  0  0  0  0  0  0  0  0  0  0
    0.0000    0.0000    0.0000 C   0  0  0  0  0  0  0  0  0  0  0  0
    0.0000    0.0000    0.0000 C   0  0  0  0  0  0  0  0  0  0  0  0
    0.0000    0.0000    0.0000 C   0  0  0  0  0  0  0  0  0  0  0  0
    0.0000    0.0000    0.0000 C   0  0  0  0  0  0  0  0  0  0  0  0
    0.0000    0.0000    0.0000 C   0  0  0  0  0  0  0  0  0  0  0  0
    0.0000    0.0000    0.0000 C   0  0  0  0  0  0  0  0  0  0  0  0
    0.0000    0.0000    0.0000 C   0  0  0  0  0  0  0  0  0  0  0  0
    0.0000    0.0000    0.0000 C   0  0  0  0  0  0  0  0  0  0  0  0
    0.0000    0.0000    0.0000 C   0  0  0  0  0  0  0  0  0  0  0  0
    0.0000    0.0000    0.0000 C   0  0  0  0  0  0  0  0  0  0  0  0
    0.0000    0.0000    0.0000 C   0  0  0  0  0  0  0  0  0  0  0  0
    0.0000    0.0000    0.0000 C   0  0  0  0  0  0  0  0  0  0  0  0
    0.0000    0.0000    0.0000 C   0  0  0  0  0  0  0  0  0  0  0  0
    0.0000    0.0000    0.0000 N   0  0  0  0  0  0  0  0  0  0  0  0
    0.0000    0.0000    0.0000 C   0  0  0  0  0  0  0  0  0  0  0  0
    0.0000    0.0000    0.0000 C   0  0  0  0  0  0  0  0  0  0  0  0
  1  2  1  0
  2  3  1  0
  3  4  2  0
  4  5  1  0
  5  6  1  0
  5  7  2  0
  7  8  1  0
  8  9  1  0
  8 10  2  0
 10 11  1  0
 11 12  3  0
 12 13  1  0
 13 14  1  0
 14 15  2  0
 15 16  1  0
 16 17  2  0
 17 18  1  0
 18 19  2  0
 18 20  1  0
 20 21  2  0
 21 22  1  0
 22 23  2  0
 23 24  1  0
 24 25  2  0
 10  3  1  0
 19 14  1  0
 25 20  1  0
M  END
>  <pIC50>  (562) 
6.28

>  <ChEMBL_ID>  (562) 
CHEMBL3644521

>  <document_journal>  (562) 
None

>  <bao_endpoint>  (562) 
BAO_0000190

>  <potential_duplicate>  (562) 
None

>  <uo_units>  (562) 
UO_0000065

>  <canonical_smiles>  (562) 
CCc1nc(N)nc(N)c1C#CCc2cccc(c2)c3ccncc3

>  <parent_molecule_chembl_id>  (562) 
CHEMBL3644521

>  <assay_type>  (562) 
B

>  <src_id>  (562) 
37

>  <ligand_efficiency>  (562) 
{u'le': u'0.34', u'bei': u'19.08', u'sei': u'6.93', u'lle': u'2.78'}

>  <standard_flag>  (562) 
True

>  <molecule_chembl_id>  (562) 
CHEMBL3644521

>  <target_organism>  (562) 
Homo sapiens

>  <standard_units>  (562) 
nM

>  <record_id>  (562) 
2517578

>  <document_chembl_id>  (562) 
CHEMBL3639084

>  <bao_format>  (562) 
BAO_0000357

>  <data_validity_description>  (562) 
None

>  <activity_id>  (562) 
16349189

>  <standard_type>  (562) 
IC50

>  <target_chembl_id>  (562) 
CHEMBL202

>  <data_validity_comment>  (562) 
None

>  <published_value>  (562) 
520

>  <document_year>  (562) 
2014

>  <target_pref_name>  (562) 
Dihydrofolate reductase

>  <assay_chembl_id>  (562) 
CHEMBL3707851

>  <standard_relation>  (562) 
=

>  <assay_description>  (562) 
BindingDB_Patents: Enzyme Inhibition Assay. Heterocyclic analogs of propargyl-linked inhibitors of the third generation analogs were evaluated in enzyme inhibition assays, assessed for S. aureus and S. pyogenes inhibition, and evaluated for mammalian cell toxicity.

>  <published_relation>  (562) 
=

>  <standard_value>  (562) 
520

>  <qudt_units>  (562) 
http://www.openphacts.org/units/Nanomolar

>  <target_tax_id>  (562) 
9606

>  <bao_label>  (562) 
single protein format

>  <published_units>  (562) 
nM

>  <pchembl_value>  (562) 
6.28

>  <published_type>  (562) 
IC50

>  <activity_comment>  (562) 
267794

$$$$

     RDKit          

 27 29  0  0  0  0  0  0  0  0999 V2000
    0.0000    0.0000    0.0000 C   0  0  0  0  0  0  0  0  0  0  0  0
    0.0000    0.0000    0.0000 C   0  0  0  0  0  0  0  0  0  0  0  0
    0.0000    0.0000    0.0000 C   0  0  0  0  0  0  0  0  0  0  0  0
    0.0000    0.0000    0.0000 N   0  0  0  0  0  0  0  0  0  0  0  0
    0.0000    0.0000    0.0000 C   0  0  0  0  0  0  0  0  0  0  0  0
    0.0000    0.0000    0.0000 N   0  0  0  0  0  0  0  0  0  0  0  0
    0.0000    0.0000    0.0000 N   0  0  0  0  0  0  0  0  0  0  0  0
    0.0000    0.0000    0.0000 C   0  0  0  0  0  0  0  0  0  0  0  0
    0.0000    0.0000    0.0000 N   0  0  0  0  0  0  0  0  0  0  0  0
    0.0000    0.0000    0.0000 C   0  0  0  0  0  0  0  0  0  0  0  0
    0.0000    0.0000    0.0000 C   0  0  0  0  0  0  0  0  0  0  0  0
    0.0000    0.0000    0.0000 C   0  0  0  0  0  0  0  0  0  0  0  0
    0.0000    0.0000    0.0000 C   0  0  0  0  0  0  0  0  0  0  0  0
    0.0000    0.0000    0.0000 C   0  0  0  0  0  0  0  0  0  0  0  0
    0.0000    0.0000    0.0000 C   0  0  0  0  0  0  0  0  0  0  0  0
    0.0000    0.0000    0.0000 C   0  0  0  0  0  0  0  0  0  0  0  0
    0.0000    0.0000    0.0000 C   0  0  0  0  0  0  0  0  0  0  0  0
    0.0000    0.0000    0.0000 C   0  0  0  0  0  0  0  0  0  0  0  0
    0.0000    0.0000    0.0000 C   0  0  0  0  0  0  0  0  0  0  0  0
    0.0000    0.0000    0.0000 O   0  0  0  0  0  0  0  0  0  0  0  0
    0.0000    0.0000    0.0000 C   0  0  0  0  0  0  0  0  0  0  0  0
    0.0000    0.0000    0.0000 C   0  0  0  0  0  0  0  0  0  0  0  0
    0.0000    0.0000    0.0000 C   0  0  0  0  0  0  0  0  0  0  0  0
    0.0000    0.0000    0.0000 C   0  0  0  0  0  0  0  0  0  0  0  0
    0.0000    0.0000    0.0000 C   0  0  0  0  0  0  0  0  0  0  0  0
    0.0000    0.0000    0.0000 C   0  0  0  0  0  0  0  0  0  0  0  0
    0.0000    0.0000    0.0000 C   0  0  0  0  0  0  0  0  0  0  0  0
  1  2  1  0
  2  3  1  0
  3  4  2  0
  4  5  1  0
  5  6  1  0
  5  7  2  0
  7  8  1  0
  8  9  1  0
  8 10  2  0
 10 11  1  0
 11 12  3  0
 12 13  1  0
 13 14  1  0
 14 15  2  0
 15 16  1  0
 16 17  2  0
 17 18  1  0
 18 19  2  0
 19 20  1  0
 20 21  1  0
 16 22  1  0
 22 23  2  0
 23 24  1  0
 24 25  2  0
 25 26  1  0
 26 27  2  0
 10  3  1  0
 19 14  1  0
 27 22  1  0
M  END
>  <pIC50>  (563) 
6.52

>  <ChEMBL_ID>  (563) 
CHEMBL1270533

>  <document_journal>  (563) 
None

>  <bao_endpoint>  (563) 
BAO_0000190

>  <potential_duplicate>  (563) 
None

>  <uo_units>  (563) 
UO_0000065

>  <canonical_smiles>  (563) 
CCc1nc(N)nc(N)c1C#CCc2cc(ccc2OC)c3ccccc3

>  <parent_molecule_chembl_id>  (563) 
CHEMBL1270533

>  <assay_type>  (563) 
B

>  <src_id>  (563) 
37

>  <ligand_efficiency>  (563) 
{u'le': u'0.33', u'bei': u'18.2', u'sei': u'7.49', u'lle': u'1.89'}

>  <standard_flag>  (563) 
True

>  <molecule_chembl_id>  (563) 
CHEMBL1270533

>  <target_organism>  (563) 
Homo sapiens

>  <standard_units>  (563) 
nM

>  <record_id>  (563) 
2517593

>  <document_chembl_id>  (563) 
CHEMBL3639084

>  <bao_format>  (563) 
BAO_0000357

>  <data_validity_description>  (563) 
None

>  <activity_id>  (563) 
16349855

>  <standard_type>  (563) 
IC50

>  <target_chembl_id>  (563) 
CHEMBL202

>  <data_validity_comment>  (563) 
None

>  <published_value>  (563) 
300

>  <document_year>  (563) 
2014

>  <target_pref_name>  (563) 
Dihydrofolate reductase

>  <assay_chembl_id>  (563) 
CHEMBL3707851

>  <standard_relation>  (563) 
=

>  <assay_description>  (563) 
BindingDB_Patents: Enzyme Inhibition Assay. Heterocyclic analogs of propargyl-linked inhibitors of the third generation analogs were evaluated in enzyme inhibition assays, assessed for S. aureus and S. pyogenes inhibition, and evaluated for mammalian cell toxicity.

>  <published_relation>  (563) 
=

>  <standard_value>  (563) 
300

>  <qudt_units>  (563) 
http://www.openphacts.org/units/Nanomolar

>  <target_tax_id>  (563) 
9606

>  <bao_label>  (563) 
single protein format

>  <published_units>  (563) 
nM

>  <pchembl_value>  (563) 
6.52

>  <published_type>  (563) 
IC50

>  <activity_comment>  (563) 
267785

$$$$

     RDKit          

 27 29  0  0  0  0  0  0  0  0999 V2000
    0.0000    0.0000    0.0000 C   0  0  0  0  0  0  0  0  0  0  0  0
    0.0000    0.0000    0.0000 O   0  0  0  0  0  0  0  0  0  0  0  0
    0.0000    0.0000    0.0000 C   0  0  0  0  0  0  0  0  0  0  0  0
    0.0000    0.0000    0.0000 C   0  0  0  0  0  0  0  0  0  0  0  0
    0.0000    0.0000    0.0000 C   0  0  0  0  0  0  0  0  0  0  0  0
    0.0000    0.0000    0.0000 C   0  0  0  0  0  0  0  0  0  0  0  0
    0.0000    0.0000    0.0000 C   0  0  0  0  0  0  0  0  0  0  0  0
    0.0000    0.0000    0.0000 C   0  0  0  0  0  0  0  0  0  0  0  0
    0.0000    0.0000    0.0000 C   0  0  0  0  0  0  0  0  0  0  0  0
    0.0000    0.0000    0.0000 C   0  0  0  0  0  0  0  0  0  0  0  0
    0.0000    0.0000    0.0000 C   0  0  0  0  0  0  0  0  0  0  0  0
    0.0000    0.0000    0.0000 C   0  0  0  0  0  0  0  0  0  0  0  0
    0.0000    0.0000    0.0000 C   0  0  0  0  0  0  0  0  0  0  0  0
    0.0000    0.0000    0.0000 C   0  0  0  0  0  0  0  0  0  0  0  0
    0.0000    0.0000    0.0000 C   0  0  0  0  0  0  0  0  0  0  0  0
    0.0000    0.0000    0.0000 N   0  0  0  0  0  0  0  0  0  0  0  0
    0.0000    0.0000    0.0000 C   0  0  0  0  0  0  0  0  0  0  0  0
    0.0000    0.0000    0.0000 N   0  0  0  0  0  0  0  0  0  0  0  0
    0.0000    0.0000    0.0000 N   0  0  0  0  0  0  0  0  0  0  0  0
    0.0000    0.0000    0.0000 C   0  0  0  0  0  0  0  0  0  0  0  0
    0.0000    0.0000    0.0000 N   0  0  0  0  0  0  0  0  0  0  0  0
    0.0000    0.0000    0.0000 C   0  0  0  0  0  0  0  0  0  0  0  0
    0.0000    0.0000    0.0000 C   0  0  0  0  0  0  0  0  0  0  0  0
    0.0000    0.0000    0.0000 C   0  0  0  0  0  0  0  0  0  0  0  0
    0.0000    0.0000    0.0000 C   0  0  0  0  0  0  0  0  0  0  0  0
    0.0000    0.0000    0.0000 C   0  0  0  0  0  0  0  0  0  0  0  0
    0.0000    0.0000    0.0000 C   0  0  0  0  0  0  0  0  0  0  0  0
  1  2  1  0
  2  3  1  0
  3  4  2  0
  4  5  1  0
  5  6  2  0
  6  7  1  0
  7  8  2  0
  8  9  1  0
  9 10  1  0
  9 11  1  0
 11 12  3  0
 12 13  1  0
 13 14  2  0
 14 15  1  0
 14 16  1  0
 16 17  2  0
 17 18  1  0
 17 19  1  0
 19 20  2  0
 20 21  1  0
  6 22  1  0
 22 23  2  0
 23 24  1  0
 24 25  2  0
 25 26  1  0
 26 27  2  0
  8  3  1  0
 20 13  1  0
 27 22  1  0
M  END
>  <pIC50>  (564) 
7.01

>  <ChEMBL_ID>  (564) 
CHEMBL3234115

>  <document_journal>  (564) 
None

>  <bao_endpoint>  (564) 
BAO_0000190

>  <potential_duplicate>  (564) 
None

>  <uo_units>  (564) 
UO_0000065

>  <canonical_smiles>  (564) 
COc1ccc(cc1C(C)C#Cc2c(C)nc(N)nc2N)c3ccccc3

>  <parent_molecule_chembl_id>  (564) 
CHEMBL3234115

>  <assay_type>  (564) 
B

>  <src_id>  (564) 
37

>  <ligand_efficiency>  (564) 
{u'le': u'0.35', u'bei': u'19.57', u'sei': u'8.06', u'lle': u'2.79'}

>  <standard_flag>  (564) 
True

>  <molecule_chembl_id>  (564) 
CHEMBL3234115

>  <target_organism>  (564) 
Homo sapiens

>  <standard_units>  (564) 
nM

>  <record_id>  (564) 
2517588

>  <document_chembl_id>  (564) 
CHEMBL3639084

>  <bao_format>  (564) 
BAO_0000357

>  <data_validity_description>  (564) 
None

>  <activity_id>  (564) 
16350476

>  <standard_type>  (564) 
IC50

>  <target_chembl_id>  (564) 
CHEMBL202

>  <data_validity_comment>  (564) 
None

>  <published_value>  (564) 
97

>  <document_year>  (564) 
2014

>  <target_pref_name>  (564) 
Dihydrofolate reductase

>  <assay_chembl_id>  (564) 
CHEMBL3707851

>  <standard_relation>  (564) 
=

>  <assay_description>  (564) 
BindingDB_Patents: Enzyme Inhibition Assay. Heterocyclic analogs of propargyl-linked inhibitors of the third generation analogs were evaluated in enzyme inhibition assays, assessed for S. aureus and S. pyogenes inhibition, and evaluated for mammalian cell toxicity.

>  <published_relation>  (564) 
=

>  <standard_value>  (564) 
97

>  <qudt_units>  (564) 
http://www.openphacts.org/units/Nanomolar

>  <target_tax_id>  (564) 
9606

>  <bao_label>  (564) 
single protein format

>  <published_units>  (564) 
nM

>  <pchembl_value>  (564) 
7.01

>  <published_type>  (564) 
IC50

>  <activity_comment>  (564) 
267788

$$$$

     RDKit          

 39 44  0  0  0  0  0  0  0  0999 V2000
    0.0000    0.0000    0.0000 C   0  0  0  0  0  0  0  0  0  0  0  0
    0.0000    0.0000    0.0000 N   0  0  0  0  0  0  0  0  0  0  0  0
    0.0000    0.0000    0.0000 C   0  0  0  0  0  0  0  0  0  0  0  0
    0.0000    0.0000    0.0000 C   0  0  0  0  0  0  0  0  0  0  0  0
    0.0000    0.0000    0.0000 N   0  0  0  0  0  0  0  0  0  0  0  0
    0.0000    0.0000    0.0000 C   0  0  0  0  0  0  0  0  0  0  0  0
    0.0000    0.0000    0.0000 C   0  0  0  0  0  0  0  0  0  0  0  0
    0.0000    0.0000    0.0000 C   0  0  0  0  0  0  0  0  0  0  0  0
    0.0000    0.0000    0.0000 N   0  0  0  0  0  0  0  0  0  0  0  0
    0.0000    0.0000    0.0000 C   0  0  0  0  0  0  0  0  0  0  0  0
    0.0000    0.0000    0.0000 N   0  0  0  0  0  0  0  0  0  0  0  0
    0.0000    0.0000    0.0000 C   0  0  0  0  0  0  0  0  0  0  0  0
    0.0000    0.0000    0.0000 C   0  0  0  0  0  0  0  0  0  0  0  0
    0.0000    0.0000    0.0000 C   0  0  0  0  0  0  0  0  0  0  0  0
    0.0000    0.0000    0.0000 C   0  0  0  0  0  0  0  0  0  0  0  0
    0.0000    0.0000    0.0000 F   0  0  0  0  0  0  0  0  0  0  0  0
    0.0000    0.0000    0.0000 C   0  0  0  0  0  0  0  0  0  0  0  0
    0.0000    0.0000    0.0000 C   0  0  0  0  0  0  0  0  0  0  0  0
    0.0000    0.0000    0.0000 N   0  0  0  0  0  0  0  0  0  0  0  0
    0.0000    0.0000    0.0000 C   0  0  0  0  0  0  0  0  0  0  0  0
    0.0000    0.0000    0.0000 N   0  0  0  0  0  0  0  0  0  0  0  0
    0.0000    0.0000    0.0000 C   0  0  0  0  0  0  0  0  0  0  0  0
    0.0000    0.0000    0.0000 C   0  0  0  0  0  0  0  0  0  0  0  0
    0.0000    0.0000    0.0000 C   0  0  0  0  0  0  0  0  0  0  0  0
    0.0000    0.0000    0.0000 C   0  0  0  0  0  0  0  0  0  0  0  0
    0.0000    0.0000    0.0000 C   0  0  0  0  0  0  0  0  0  0  0  0
    0.0000    0.0000    0.0000 C   0  0  0  0  0  0  0  0  0  0  0  0
    0.0000    0.0000    0.0000 N   0  0  0  0  0  0  0  0  0  0  0  0
    0.0000    0.0000    0.0000 C   0  0  0  0  0  0  0  0  0  0  0  0
    0.0000    0.0000    0.0000 C   0  0  0  0  0  0  0  0  0  0  0  0
    0.0000    0.0000    0.0000 N   0  0  0  0  0  0  0  0  0  0  0  0
    0.0000    0.0000    0.0000 C   0  0  0  0  0  0  0  0  0  0  0  0
    0.0000    0.0000    0.0000 C   0  0  0  0  0  0  0  0  0  0  0  0
    0.0000    0.0000    0.0000 C   0  0  0  0  0  0  0  0  0  0  0  0
    0.0000    0.0000    0.0000 C   0  0  0  0  0  0  0  0  0  0  0  0
    0.0000    0.0000    0.0000 C   0  0  0  0  0  0  0  0  0  0  0  0
    0.0000    0.0000    0.0000 C   0  0  0  0  0  0  0  0  0  0  0  0
    0.0000    0.0000    0.0000 C   0  0  0  0  0  0  0  0  0  0  0  0
    0.0000    0.0000    0.0000 N   0  0  0  0  0  0  0  0  0  0  0  0
  1  2  1  0
  2  3  1  0
  3  4  1  0
  4  5  1  0
  5  6  1  0
  6  7  1  0
  5  8  1  0
  8  9  2  0
  9 10  1  0
 10 11  1  0
 11 12  1  0
 12 13  2  0
 13 14  1  0
 14 15  2  0
 15 16  1  0
 15 17  1  0
 17 18  2  0
 10 19  2  0
 19 20  1  0
 20 21  1  0
 21 22  1  0
 22 23  2  0
 23 24  1  0
 24 25  2  0
 25 26  1  0
 26 27  2  0
 26 28  1  0
 28 29  2  0
 29 30  1  0
 29 31  1  0
 31 32  1  0
 32 33  1  0
 33 34  2  0
 34 35  1  0
 35 36  2  0
 36 37  1  0
 37 38  2  0
 20 39  2  0
  7  2  1  0
 39  8  1  0
 18 12  1  0
 27 22  1  0
 31 25  1  0
 38 33  1  0
M  END
>  <pIC50>  (565) 
6.51

>  <ChEMBL_ID>  (565) 
CHEMBL3747446

>  <document_journal>  (565) 
Bioorg. Med. Chem. Lett.

>  <bao_endpoint>  (565) 
BAO_0000190

>  <potential_duplicate>  (565) 
None

>  <uo_units>  (565) 
UO_0000065

>  <canonical_smiles>  (565) 
CN1CCN(CC1)c2nc(Nc3ccc(F)cc3)nc(Nc4ccc5c(c4)nc(C)n5Cc6ccccc6)n2

>  <parent_molecule_chembl_id>  (565) 
CHEMBL3747446

>  <assay_type>  (565) 
B

>  <src_id>  (565) 
1

>  <ligand_efficiency>  (565) 
None

>  <standard_flag>  (565) 
True

>  <molecule_chembl_id>  (565) 
CHEMBL3747446

>  <target_organism>  (565) 
Homo sapiens

>  <standard_units>  (565) 
nM

>  <record_id>  (565) 
2741969

>  <document_chembl_id>  (565) 
CHEMBL3745645

>  <bao_format>  (565) 
None

>  <data_validity_description>  (565) 
None

>  <activity_id>  (565) 
16419044

>  <standard_type>  (565) 
IC50

>  <target_chembl_id>  (565) 
CHEMBL202

>  <data_validity_comment>  (565) 
None

>  <published_value>  (565) 
0.31

>  <document_year>  (565) 
2016

>  <target_pref_name>  (565) 
Dihydrofolate reductase

>  <assay_chembl_id>  (565) 
CHEMBL3750438

>  <standard_relation>  (565) 
=

>  <assay_description>  (565) 
Inhibition of human recombinant DHFR expressed in Escherichia coli by spectrophotometric analysis

>  <published_relation>  (565) 
=

>  <standard_value>  (565) 
310

>  <qudt_units>  (565) 
http://www.openphacts.org/units/Nanomolar

>  <target_tax_id>  (565) 
9606

>  <bao_label>  (565) 
None

>  <published_units>  (565) 
uM

>  <pchembl_value>  (565) 
6.51

>  <published_type>  (565) 
IC50

>  <activity_comment>  (565) 
None

$$$$

     RDKit          

 37 42  0  0  0  0  0  0  0  0999 V2000
    0.0000    0.0000    0.0000 C   0  0  0  0  0  0  0  0  0  0  0  0
    0.0000    0.0000    0.0000 C   0  0  0  0  0  0  0  0  0  0  0  0
    0.0000    0.0000    0.0000 N   0  0  0  0  0  0  0  0  0  0  0  0
    0.0000    0.0000    0.0000 C   0  0  0  0  0  0  0  0  0  0  0  0
    0.0000    0.0000    0.0000 C   0  0  0  0  0  0  0  0  0  0  0  0
    0.0000    0.0000    0.0000 C   0  0  0  0  0  0  0  0  0  0  0  0
    0.0000    0.0000    0.0000 N   0  0  0  0  0  0  0  0  0  0  0  0
    0.0000    0.0000    0.0000 C   0  0  0  0  0  0  0  0  0  0  0  0
    0.0000    0.0000    0.0000 N   0  0  0  0  0  0  0  0  0  0  0  0
    0.0000    0.0000    0.0000 C   0  0  0  0  0  0  0  0  0  0  0  0
    0.0000    0.0000    0.0000 N   0  0  0  0  0  0  0  0  0  0  0  0
    0.0000    0.0000    0.0000 C   0  0  0  0  0  0  0  0  0  0  0  0
    0.0000    0.0000    0.0000 C   0  0  0  0  0  0  0  0  0  0  0  0
    0.0000    0.0000    0.0000 C   0  0  0  0  0  0  0  0  0  0  0  0
    0.0000    0.0000    0.0000 C   0  0  0  0  0  0  0  0  0  0  0  0
    0.0000    0.0000    0.0000 F   0  0  0  0  0  0  0  0  0  0  0  0
    0.0000    0.0000    0.0000 C   0  0  0  0  0  0  0  0  0  0  0  0
    0.0000    0.0000    0.0000 C   0  0  0  0  0  0  0  0  0  0  0  0
    0.0000    0.0000    0.0000 N   0  0  0  0  0  0  0  0  0  0  0  0
    0.0000    0.0000    0.0000 C   0  0  0  0  0  0  0  0  0  0  0  0
    0.0000    0.0000    0.0000 N   0  0  0  0  0  0  0  0  0  0  0  0
    0.0000    0.0000    0.0000 N   0  0  0  0  0  0  0  0  0  0  0  0
    0.0000    0.0000    0.0000 C   0  0  0  0  0  0  0  0  0  0  0  0
    0.0000    0.0000    0.0000 C   0  0  0  0  0  0  0  0  0  0  0  0
    0.0000    0.0000    0.0000 C   0  0  0  0  0  0  0  0  0  0  0  0
    0.0000    0.0000    0.0000 C   0  0  0  0  0  0  0  0  0  0  0  0
    0.0000    0.0000    0.0000 C   0  0  0  0  0  0  0  0  0  0  0  0
    0.0000    0.0000    0.0000 C   0  0  0  0  0  0  0  0  0  0  0  0
    0.0000    0.0000    0.0000 C   0  0  0  0  0  0  0  0  0  0  0  0
    0.0000    0.0000    0.0000 N   0  0  0  0  0  0  0  0  0  0  0  0
    0.0000    0.0000    0.0000 C   0  0  0  0  0  0  0  0  0  0  0  0
    0.0000    0.0000    0.0000 C   0  0  0  0  0  0  0  0  0  0  0  0
    0.0000    0.0000    0.0000 C   0  0  0  0  0  0  0  0  0  0  0  0
    0.0000    0.0000    0.0000 C   0  0  0  0  0  0  0  0  0  0  0  0
    0.0000    0.0000    0.0000 C   0  0  0  0  0  0  0  0  0  0  0  0
    0.0000    0.0000    0.0000 C   0  0  0  0  0  0  0  0  0  0  0  0
    0.0000    0.0000    0.0000 C   0  0  0  0  0  0  0  0  0  0  0  0
  1  2  1  0
  2  3  2  0
  3  4  1  0
  4  5  2  0
  5  6  1  0
  6  7  1  0
  7  8  1  0
  8  9  2  0
  9 10  1  0
 10 11  1  0
 11 12  1  0
 12 13  2  0
 13 14  1  0
 14 15  2  0
 15 16  1  0
 15 17  1  0
 17 18  2  0
 10 19  2  0
 19 20  1  0
 20 21  2  0
 20 22  1  0
 22 23  1  0
 23 24  1  0
 24 25  1  0
 25 26  1  0
  6 27  2  0
 27 28  1  0
 28 29  2  0
 29 30  1  0
 30 31  1  0
 31 32  1  0
 32 33  2  0
 33 34  1  0
 34 35  2  0
 35 36  1  0
 36 37  2  0
 30  2  1  0
 29  4  1  0
 21  8  1  0
 18 12  1  0
 26 22  1  0
 37 32  1  0
M  END
>  <pIC50>  (566) 
6.96

>  <ChEMBL_ID>  (566) 
CHEMBL3746911

>  <document_journal>  (566) 
Bioorg. Med. Chem. Lett.

>  <bao_endpoint>  (566) 
BAO_0000190

>  <potential_duplicate>  (566) 
None

>  <uo_units>  (566) 
UO_0000065

>  <canonical_smiles>  (566) 
Cc1nc2cc(Nc3nc(Nc4ccc(F)cc4)nc(n3)N5CCCC5)ccc2n1Cc6ccccc6

>  <parent_molecule_chembl_id>  (566) 
CHEMBL3746911

>  <assay_type>  (566) 
B

>  <src_id>  (566) 
1

>  <ligand_efficiency>  (566) 
None

>  <standard_flag>  (566) 
True

>  <molecule_chembl_id>  (566) 
CHEMBL3746911

>  <target_organism>  (566) 
Homo sapiens

>  <standard_units>  (566) 
nM

>  <record_id>  (566) 
2741970

>  <document_chembl_id>  (566) 
CHEMBL3745645

>  <bao_format>  (566) 
None

>  <data_validity_description>  (566) 
None

>  <activity_id>  (566) 
16419877

>  <standard_type>  (566) 
IC50

>  <target_chembl_id>  (566) 
CHEMBL202

>  <data_validity_comment>  (566) 
None

>  <published_value>  (566) 
0.11

>  <document_year>  (566) 
2016

>  <target_pref_name>  (566) 
Dihydrofolate reductase

>  <assay_chembl_id>  (566) 
CHEMBL3750438

>  <standard_relation>  (566) 
=

>  <assay_description>  (566) 
Inhibition of human recombinant DHFR expressed in Escherichia coli by spectrophotometric analysis

>  <published_relation>  (566) 
=

>  <standard_value>  (566) 
110

>  <qudt_units>  (566) 
http://www.openphacts.org/units/Nanomolar

>  <target_tax_id>  (566) 
9606

>  <bao_label>  (566) 
None

>  <published_units>  (566) 
uM

>  <pchembl_value>  (566) 
6.96

>  <published_type>  (566) 
IC50

>  <activity_comment>  (566) 
None

$$$$

     RDKit          

 41 46  0  0  0  0  0  0  0  0999 V2000
    0.0000    0.0000    0.0000 C   0  0  0  0  0  0  0  0  0  0  0  0
    0.0000    0.0000    0.0000 C   0  0  0  0  0  0  0  0  0  0  0  0
    0.0000    0.0000    0.0000 N   0  0  0  0  0  0  0  0  0  0  0  0
    0.0000    0.0000    0.0000 C   0  0  0  0  0  0  0  0  0  0  0  0
    0.0000    0.0000    0.0000 C   0  0  0  0  0  0  0  0  0  0  0  0
    0.0000    0.0000    0.0000 C   0  0  0  0  0  0  0  0  0  0  0  0
    0.0000    0.0000    0.0000 C   0  0  0  0  0  0  0  0  0  0  0  0
    0.0000    0.0000    0.0000 N   0  0  0  0  0  0  0  0  0  0  0  0
    0.0000    0.0000    0.0000 C   0  0  0  0  0  0  0  0  0  0  0  0
    0.0000    0.0000    0.0000 N   0  0  0  0  0  0  0  0  0  0  0  0
    0.0000    0.0000    0.0000 C   0  0  0  0  0  0  0  0  0  0  0  0
    0.0000    0.0000    0.0000 N   0  0  0  0  0  0  0  0  0  0  0  0
    0.0000    0.0000    0.0000 C   0  0  0  0  0  0  0  0  0  0  0  0
    0.0000    0.0000    0.0000 C   0  0  0  0  0  0  0  0  0  0  0  0
    0.0000    0.0000    0.0000 N   0  0  0  0  0  0  0  0  0  0  0  0
    0.0000    0.0000    0.0000 C   0  0  0  0  0  0  0  0  0  0  0  0
    0.0000    0.0000    0.0000 C   0  0  0  0  0  0  0  0  0  0  0  0
    0.0000    0.0000    0.0000 O   0  0  0  0  0  0  0  0  0  0  0  0
    0.0000    0.0000    0.0000 C   0  0  0  0  0  0  0  0  0  0  0  0
    0.0000    0.0000    0.0000 C   0  0  0  0  0  0  0  0  0  0  0  0
    0.0000    0.0000    0.0000 N   0  0  0  0  0  0  0  0  0  0  0  0
    0.0000    0.0000    0.0000 C   0  0  0  0  0  0  0  0  0  0  0  0
    0.0000    0.0000    0.0000 N   0  0  0  0  0  0  0  0  0  0  0  0
    0.0000    0.0000    0.0000 C   0  0  0  0  0  0  0  0  0  0  0  0
    0.0000    0.0000    0.0000 C   0  0  0  0  0  0  0  0  0  0  0  0
    0.0000    0.0000    0.0000 C   0  0  0  0  0  0  0  0  0  0  0  0
    0.0000    0.0000    0.0000 C   0  0  0  0  0  0  0  0  0  0  0  0
    0.0000    0.0000    0.0000 F   0  0  0  0  0  0  0  0  0  0  0  0
    0.0000    0.0000    0.0000 C   0  0  0  0  0  0  0  0  0  0  0  0
    0.0000    0.0000    0.0000 C   0  0  0  0  0  0  0  0  0  0  0  0
    0.0000    0.0000    0.0000 N   0  0  0  0  0  0  0  0  0  0  0  0
    0.0000    0.0000    0.0000 C   0  0  0  0  0  0  0  0  0  0  0  0
    0.0000    0.0000    0.0000 C   0  0  0  0  0  0  0  0  0  0  0  0
    0.0000    0.0000    0.0000 N   0  0  0  0  0  0  0  0  0  0  0  0
    0.0000    0.0000    0.0000 C   0  0  0  0  0  0  0  0  0  0  0  0
    0.0000    0.0000    0.0000 C   0  0  0  0  0  0  0  0  0  0  0  0
    0.0000    0.0000    0.0000 C   0  0  0  0  0  0  0  0  0  0  0  0
    0.0000    0.0000    0.0000 C   0  0  0  0  0  0  0  0  0  0  0  0
    0.0000    0.0000    0.0000 C   0  0  0  0  0  0  0  0  0  0  0  0
    0.0000    0.0000    0.0000 C   0  0  0  0  0  0  0  0  0  0  0  0
    0.0000    0.0000    0.0000 C   0  0  0  0  0  0  0  0  0  0  0  0
  1  2  1  0
  2  3  2  0
  3  4  1  0
  4  5  2  0
  5  6  1  0
  6  7  2  0
  7  8  1  0
  8  9  1  0
  9 10  2  0
 10 11  1  0
 11 12  1  0
 12 13  1  0
 13 14  1  0
 14 15  1  0
 15 16  1  0
 16 17  1  0
 17 18  1  0
 18 19  1  0
 19 20  1  0
 11 21  2  0
 21 22  1  0
 22 23  1  0
 23 24  1  0
 24 25  2  0
 25 26  1  0
 26 27  2  0
 27 28  1  0
 27 29  1  0
 29 30  2  0
 22 31  2  0
  7 32  1  0
 32 33  2  0
 33 34  1  0
 34 35  1  0
 35 36  1  0
 36 37  2  0
 37 38  1  0
 38 39  2  0
 39 40  1  0
 40 41  2  0
 34  2  1  0
 33  4  1  0
 31  9  1  0
 20 15  1  0
 30 24  1  0
 41 36  1  0
M  END
>  <pIC50>  (567) 
8.7

>  <ChEMBL_ID>  (567) 
CHEMBL3747216

>  <document_journal>  (567) 
Bioorg. Med. Chem. Lett.

>  <bao_endpoint>  (567) 
BAO_0000190

>  <potential_duplicate>  (567) 
None

>  <uo_units>  (567) 
UO_0000065

>  <canonical_smiles>  (567) 
Cc1nc2ccc(Nc3nc(NCCN4CCOCC4)nc(Nc5ccc(F)cc5)n3)cc2n1Cc6ccccc6

>  <parent_molecule_chembl_id>  (567) 
CHEMBL3747216

>  <assay_type>  (567) 
B

>  <src_id>  (567) 
1

>  <ligand_efficiency>  (567) 
None

>  <standard_flag>  (567) 
True

>  <molecule_chembl_id>  (567) 
CHEMBL3747216

>  <target_organism>  (567) 
Homo sapiens

>  <standard_units>  (567) 
nM

>  <record_id>  (567) 
2741971

>  <document_chembl_id>  (567) 
CHEMBL3745645

>  <bao_format>  (567) 
None

>  <data_validity_description>  (567) 
None

>  <activity_id>  (567) 
16421648

>  <standard_type>  (567) 
IC50

>  <target_chembl_id>  (567) 
CHEMBL202

>  <data_validity_comment>  (567) 
None

>  <published_value>  (567) 
0.002

>  <document_year>  (567) 
2016

>  <target_pref_name>  (567) 
Dihydrofolate reductase

>  <assay_chembl_id>  (567) 
CHEMBL3750438

>  <standard_relation>  (567) 
=

>  <assay_description>  (567) 
Inhibition of human recombinant DHFR expressed in Escherichia coli by spectrophotometric analysis

>  <published_relation>  (567) 
=

>  <standard_value>  (567) 
2

>  <qudt_units>  (567) 
http://www.openphacts.org/units/Nanomolar

>  <target_tax_id>  (567) 
9606

>  <bao_label>  (567) 
None

>  <published_units>  (567) 
uM

>  <pchembl_value>  (567) 
8.7

>  <published_type>  (567) 
IC50

>  <activity_comment>  (567) 
None

$$$$

     RDKit          

 39 44  0  0  0  0  0  0  0  0999 V2000
    0.0000    0.0000    0.0000 C   0  0  0  0  0  0  0  0  0  0  0  0
    0.0000    0.0000    0.0000 C   0  0  0  0  0  0  0  0  0  0  0  0
    0.0000    0.0000    0.0000 N   0  0  0  0  0  0  0  0  0  0  0  0
    0.0000    0.0000    0.0000 C   0  0  0  0  0  0  0  0  0  0  0  0
    0.0000    0.0000    0.0000 C   0  0  0  0  0  0  0  0  0  0  0  0
    0.0000    0.0000    0.0000 C   0  0  0  0  0  0  0  0  0  0  0  0
    0.0000    0.0000    0.0000 N   0  0  0  0  0  0  0  0  0  0  0  0
    0.0000    0.0000    0.0000 C   0  0  0  0  0  0  0  0  0  0  0  0
    0.0000    0.0000    0.0000 N   0  0  0  0  0  0  0  0  0  0  0  0
    0.0000    0.0000    0.0000 C   0  0  0  0  0  0  0  0  0  0  0  0
    0.0000    0.0000    0.0000 N   0  0  0  0  0  0  0  0  0  0  0  0
    0.0000    0.0000    0.0000 C   0  0  0  0  0  0  0  0  0  0  0  0
    0.0000    0.0000    0.0000 C   0  0  0  0  0  0  0  0  0  0  0  0
    0.0000    0.0000    0.0000 C   0  0  0  0  0  0  0  0  0  0  0  0
    0.0000    0.0000    0.0000 C   0  0  0  0  0  0  0  0  0  0  0  0
    0.0000    0.0000    0.0000 F   0  0  0  0  0  0  0  0  0  0  0  0
    0.0000    0.0000    0.0000 C   0  0  0  0  0  0  0  0  0  0  0  0
    0.0000    0.0000    0.0000 C   0  0  0  0  0  0  0  0  0  0  0  0
    0.0000    0.0000    0.0000 N   0  0  0  0  0  0  0  0  0  0  0  0
    0.0000    0.0000    0.0000 C   0  0  0  0  0  0  0  0  0  0  0  0
    0.0000    0.0000    0.0000 N   0  0  0  0  0  0  0  0  0  0  0  0
    0.0000    0.0000    0.0000 C   0  0  0  0  0  0  0  0  0  0  0  0
    0.0000    0.0000    0.0000 C   0  0  0  0  0  0  0  0  0  0  0  0
    0.0000    0.0000    0.0000 C   0  0  0  0  0  0  0  0  0  0  0  0
    0.0000    0.0000    0.0000 C   0  0  0  0  0  0  0  0  0  0  0  0
    0.0000    0.0000    0.0000 Cl  0  0  0  0  0  0  0  0  0  0  0  0
    0.0000    0.0000    0.0000 C   0  0  0  0  0  0  0  0  0  0  0  0
    0.0000    0.0000    0.0000 C   0  0  0  0  0  0  0  0  0  0  0  0
    0.0000    0.0000    0.0000 C   0  0  0  0  0  0  0  0  0  0  0  0
    0.0000    0.0000    0.0000 C   0  0  0  0  0  0  0  0  0  0  0  0
    0.0000    0.0000    0.0000 C   0  0  0  0  0  0  0  0  0  0  0  0
    0.0000    0.0000    0.0000 N   0  0  0  0  0  0  0  0  0  0  0  0
    0.0000    0.0000    0.0000 C   0  0  0  0  0  0  0  0  0  0  0  0
    0.0000    0.0000    0.0000 C   0  0  0  0  0  0  0  0  0  0  0  0
    0.0000    0.0000    0.0000 C   0  0  0  0  0  0  0  0  0  0  0  0
    0.0000    0.0000    0.0000 C   0  0  0  0  0  0  0  0  0  0  0  0
    0.0000    0.0000    0.0000 C   0  0  0  0  0  0  0  0  0  0  0  0
    0.0000    0.0000    0.0000 C   0  0  0  0  0  0  0  0  0  0  0  0
    0.0000    0.0000    0.0000 C   0  0  0  0  0  0  0  0  0  0  0  0
  1  2  1  0
  2  3  2  0
  3  4  1  0
  4  5  2  0
  5  6  1  0
  6  7  1  0
  7  8  1  0
  8  9  2  0
  9 10  1  0
 10 11  1  0
 11 12  1  0
 12 13  2  0
 13 14  1  0
 14 15  2  0
 15 16  1  0
 15 17  1  0
 17 18  2  0
 10 19  2  0
 19 20  1  0
 20 21  2  0
 20 22  1  0
 22 23  2  0
 23 24  1  0
 24 25  2  0
 25 26  1  0
 25 27  1  0
 27 28  2  0
  6 29  2  0
 29 30  1  0
 30 31  2  0
 31 32  1  0
 32 33  1  0
 33 34  1  0
 34 35  2  0
 35 36  1  0
 36 37  2  0
 37 38  1  0
 38 39  2  0
 32  2  1  0
 31  4  1  0
 21  8  1  0
 18 12  1  0
 28 22  1  0
 39 34  1  0
M  END
>  <pIC50>  (568) 
4.37

>  <ChEMBL_ID>  (568) 
CHEMBL3746597

>  <document_journal>  (568) 
Bioorg. Med. Chem. Lett.

>  <bao_endpoint>  (568) 
BAO_0000190

>  <potential_duplicate>  (568) 
None

>  <uo_units>  (568) 
UO_0000065

>  <canonical_smiles>  (568) 
Cc1nc2cc(Nc3nc(Nc4ccc(F)cc4)nc(n3)c5ccc(Cl)cc5)ccc2n1Cc6ccccc6

>  <parent_molecule_chembl_id>  (568) 
CHEMBL3746597

>  <assay_type>  (568) 
B

>  <src_id>  (568) 
1

>  <ligand_efficiency>  (568) 
None

>  <standard_flag>  (568) 
True

>  <molecule_chembl_id>  (568) 
CHEMBL3746597

>  <target_organism>  (568) 
Homo sapiens

>  <standard_units>  (568) 
nM

>  <record_id>  (568) 
2741972

>  <document_chembl_id>  (568) 
CHEMBL3745645

>  <bao_format>  (568) 
None

>  <data_validity_description>  (568) 
None

>  <activity_id>  (568) 
16422552

>  <standard_type>  (568) 
IC50

>  <target_chembl_id>  (568) 
CHEMBL202

>  <data_validity_comment>  (568) 
None

>  <published_value>  (568) 
42.4

>  <document_year>  (568) 
2016

>  <target_pref_name>  (568) 
Dihydrofolate reductase

>  <assay_chembl_id>  (568) 
CHEMBL3750438

>  <standard_relation>  (568) 
=

>  <assay_description>  (568) 
Inhibition of human recombinant DHFR expressed in Escherichia coli by spectrophotometric analysis

>  <published_relation>  (568) 
=

>  <standard_value>  (568) 
42400

>  <qudt_units>  (568) 
http://www.openphacts.org/units/Nanomolar

>  <target_tax_id>  (568) 
9606

>  <bao_label>  (568) 
None

>  <published_units>  (568) 
uM

>  <pchembl_value>  (568) 
4.37

>  <published_type>  (568) 
IC50

>  <activity_comment>  (568) 
None

$$$$

     RDKit          

 37 42  0  0  0  0  0  0  0  0999 V2000
    0.0000    0.0000    0.0000 C   0  0  0  0  0  0  0  0  0  0  0  0
    0.0000    0.0000    0.0000 C   0  0  0  0  0  0  0  0  0  0  0  0
    0.0000    0.0000    0.0000 N   0  0  0  0  0  0  0  0  0  0  0  0
    0.0000    0.0000    0.0000 C   0  0  0  0  0  0  0  0  0  0  0  0
    0.0000    0.0000    0.0000 C   0  0  0  0  0  0  0  0  0  0  0  0
    0.0000    0.0000    0.0000 C   0  0  0  0  0  0  0  0  0  0  0  0
    0.0000    0.0000    0.0000 N   0  0  0  0  0  0  0  0  0  0  0  0
    0.0000    0.0000    0.0000 C   0  0  0  0  0  0  0  0  0  0  0  0
    0.0000    0.0000    0.0000 N   0  0  0  0  0  0  0  0  0  0  0  0
    0.0000    0.0000    0.0000 C   0  0  0  0  0  0  0  0  0  0  0  0
    0.0000    0.0000    0.0000 N   0  0  0  0  0  0  0  0  0  0  0  0
    0.0000    0.0000    0.0000 C   0  0  0  0  0  0  0  0  0  0  0  0
    0.0000    0.0000    0.0000 C   0  0  0  0  0  0  0  0  0  0  0  0
    0.0000    0.0000    0.0000 C   0  0  0  0  0  0  0  0  0  0  0  0
    0.0000    0.0000    0.0000 C   0  0  0  0  0  0  0  0  0  0  0  0
    0.0000    0.0000    0.0000 F   0  0  0  0  0  0  0  0  0  0  0  0
    0.0000    0.0000    0.0000 C   0  0  0  0  0  0  0  0  0  0  0  0
    0.0000    0.0000    0.0000 C   0  0  0  0  0  0  0  0  0  0  0  0
    0.0000    0.0000    0.0000 N   0  0  0  0  0  0  0  0  0  0  0  0
    0.0000    0.0000    0.0000 C   0  0  0  0  0  0  0  0  0  0  0  0
    0.0000    0.0000    0.0000 N   0  0  0  0  0  0  0  0  0  0  0  0
    0.0000    0.0000    0.0000 C   0  0  0  0  0  0  0  0  0  0  0  0
    0.0000    0.0000    0.0000 C   0  0  0  0  0  0  0  0  0  0  0  0
    0.0000    0.0000    0.0000 C   0  0  0  0  0  0  0  0  0  0  0  0
    0.0000    0.0000    0.0000 C   0  0  0  0  0  0  0  0  0  0  0  0
    0.0000    0.0000    0.0000 S   0  0  0  0  0  0  0  0  0  0  0  0
    0.0000    0.0000    0.0000 C   0  0  0  0  0  0  0  0  0  0  0  0
    0.0000    0.0000    0.0000 C   0  0  0  0  0  0  0  0  0  0  0  0
    0.0000    0.0000    0.0000 C   0  0  0  0  0  0  0  0  0  0  0  0
    0.0000    0.0000    0.0000 N   0  0  0  0  0  0  0  0  0  0  0  0
    0.0000    0.0000    0.0000 C   0  0  0  0  0  0  0  0  0  0  0  0
    0.0000    0.0000    0.0000 C   0  0  0  0  0  0  0  0  0  0  0  0
    0.0000    0.0000    0.0000 C   0  0  0  0  0  0  0  0  0  0  0  0
    0.0000    0.0000    0.0000 C   0  0  0  0  0  0  0  0  0  0  0  0
    0.0000    0.0000    0.0000 C   0  0  0  0  0  0  0  0  0  0  0  0
    0.0000    0.0000    0.0000 C   0  0  0  0  0  0  0  0  0  0  0  0
    0.0000    0.0000    0.0000 C   0  0  0  0  0  0  0  0  0  0  0  0
  1  2  1  0
  2  3  2  0
  3  4  1  0
  4  5  2  0
  5  6  1  0
  6  7  1  0
  7  8  1  0
  8  9  2  0
  9 10  1  0
 10 11  1  0
 11 12  1  0
 12 13  2  0
 13 14  1  0
 14 15  2  0
 15 16  1  0
 15 17  1  0
 17 18  2  0
 10 19  2  0
 19 20  1  0
 20 21  2  0
 20 22  1  0
 22 23  2  0
 23 24  1  0
 24 25  2  0
 25 26  1  0
  6 27  2  0
 27 28  1  0
 28 29  2  0
 29 30  1  0
 30 31  1  0
 31 32  1  0
 32 33  2  0
 33 34  1  0
 34 35  2  0
 35 36  1  0
 36 37  2  0
 30  2  1  0
 29  4  1  0
 21  8  1  0
 18 12  1  0
 26 22  1  0
 37 32  1  0
M  END
>  <pIC50>  (569) 
6.14

>  <ChEMBL_ID>  (569) 
CHEMBL3746824

>  <document_journal>  (569) 
Bioorg. Med. Chem. Lett.

>  <bao_endpoint>  (569) 
BAO_0000190

>  <potential_duplicate>  (569) 
None

>  <uo_units>  (569) 
UO_0000065

>  <canonical_smiles>  (569) 
Cc1nc2cc(Nc3nc(Nc4ccc(F)cc4)nc(n3)c5cccs5)ccc2n1Cc6ccccc6

>  <parent_molecule_chembl_id>  (569) 
CHEMBL3746824

>  <assay_type>  (569) 
B

>  <src_id>  (569) 
1

>  <ligand_efficiency>  (569) 
None

>  <standard_flag>  (569) 
True

>  <molecule_chembl_id>  (569) 
CHEMBL3746824

>  <target_organism>  (569) 
Homo sapiens

>  <standard_units>  (569) 
nM

>  <record_id>  (569) 
2741973

>  <document_chembl_id>  (569) 
CHEMBL3745645

>  <bao_format>  (569) 
None

>  <data_validity_description>  (569) 
None

>  <activity_id>  (569) 
16422789

>  <standard_type>  (569) 
IC50

>  <target_chembl_id>  (569) 
CHEMBL202

>  <data_validity_comment>  (569) 
None

>  <published_value>  (569) 
0.72

>  <document_year>  (569) 
2016

>  <target_pref_name>  (569) 
Dihydrofolate reductase

>  <assay_chembl_id>  (569) 
CHEMBL3750438

>  <standard_relation>  (569) 
=

>  <assay_description>  (569) 
Inhibition of human recombinant DHFR expressed in Escherichia coli by spectrophotometric analysis

>  <published_relation>  (569) 
=

>  <standard_value>  (569) 
720

>  <qudt_units>  (569) 
http://www.openphacts.org/units/Nanomolar

>  <target_tax_id>  (569) 
9606

>  <bao_label>  (569) 
None

>  <published_units>  (569) 
uM

>  <pchembl_value>  (569) 
6.14

>  <published_type>  (569) 
IC50

>  <activity_comment>  (569) 
None

$$$$

     RDKit          

 40 45  0  0  0  0  0  0  0  0999 V2000
    0.0000    0.0000    0.0000 C   0  0  0  0  0  0  0  0  0  0  0  0
    0.0000    0.0000    0.0000 O   0  0  0  0  0  0  0  0  0  0  0  0
    0.0000    0.0000    0.0000 C   0  0  0  0  0  0  0  0  0  0  0  0
    0.0000    0.0000    0.0000 C   0  0  0  0  0  0  0  0  0  0  0  0
    0.0000    0.0000    0.0000 C   0  0  0  0  0  0  0  0  0  0  0  0
    0.0000    0.0000    0.0000 C   0  0  0  0  0  0  0  0  0  0  0  0
    0.0000    0.0000    0.0000 C   0  0  0  0  0  0  0  0  0  0  0  0
    0.0000    0.0000    0.0000 C   0  0  0  0  0  0  0  0  0  0  0  0
    0.0000    0.0000    0.0000 C   0  0  0  0  0  0  0  0  0  0  0  0
    0.0000    0.0000    0.0000 N   0  0  0  0  0  0  0  0  0  0  0  0
    0.0000    0.0000    0.0000 C   0  0  0  0  0  0  0  0  0  0  0  0
    0.0000    0.0000    0.0000 N   0  0  0  0  0  0  0  0  0  0  0  0
    0.0000    0.0000    0.0000 C   0  0  0  0  0  0  0  0  0  0  0  0
    0.0000    0.0000    0.0000 C   0  0  0  0  0  0  0  0  0  0  0  0
    0.0000    0.0000    0.0000 C   0  0  0  0  0  0  0  0  0  0  0  0
    0.0000    0.0000    0.0000 C   0  0  0  0  0  0  0  0  0  0  0  0
    0.0000    0.0000    0.0000 F   0  0  0  0  0  0  0  0  0  0  0  0
    0.0000    0.0000    0.0000 C   0  0  0  0  0  0  0  0  0  0  0  0
    0.0000    0.0000    0.0000 C   0  0  0  0  0  0  0  0  0  0  0  0
    0.0000    0.0000    0.0000 N   0  0  0  0  0  0  0  0  0  0  0  0
    0.0000    0.0000    0.0000 C   0  0  0  0  0  0  0  0  0  0  0  0
    0.0000    0.0000    0.0000 N   0  0  0  0  0  0  0  0  0  0  0  0
    0.0000    0.0000    0.0000 C   0  0  0  0  0  0  0  0  0  0  0  0
    0.0000    0.0000    0.0000 C   0  0  0  0  0  0  0  0  0  0  0  0
    0.0000    0.0000    0.0000 C   0  0  0  0  0  0  0  0  0  0  0  0
    0.0000    0.0000    0.0000 C   0  0  0  0  0  0  0  0  0  0  0  0
    0.0000    0.0000    0.0000 C   0  0  0  0  0  0  0  0  0  0  0  0
    0.0000    0.0000    0.0000 C   0  0  0  0  0  0  0  0  0  0  0  0
    0.0000    0.0000    0.0000 N   0  0  0  0  0  0  0  0  0  0  0  0
    0.0000    0.0000    0.0000 C   0  0  0  0  0  0  0  0  0  0  0  0
    0.0000    0.0000    0.0000 C   0  0  0  0  0  0  0  0  0  0  0  0
    0.0000    0.0000    0.0000 N   0  0  0  0  0  0  0  0  0  0  0  0
    0.0000    0.0000    0.0000 C   0  0  0  0  0  0  0  0  0  0  0  0
    0.0000    0.0000    0.0000 C   0  0  0  0  0  0  0  0  0  0  0  0
    0.0000    0.0000    0.0000 C   0  0  0  0  0  0  0  0  0  0  0  0
    0.0000    0.0000    0.0000 C   0  0  0  0  0  0  0  0  0  0  0  0
    0.0000    0.0000    0.0000 C   0  0  0  0  0  0  0  0  0  0  0  0
    0.0000    0.0000    0.0000 C   0  0  0  0  0  0  0  0  0  0  0  0
    0.0000    0.0000    0.0000 C   0  0  0  0  0  0  0  0  0  0  0  0
    0.0000    0.0000    0.0000 N   0  0  0  0  0  0  0  0  0  0  0  0
  1  2  1  0
  2  3  1  0
  3  4  2  0
  4  5  1  0
  5  6  2  0
  6  7  1  0
  7  8  2  0
  6  9  1  0
  9 10  2  0
 10 11  1  0
 11 12  1  0
 12 13  1  0
 13 14  2  0
 14 15  1  0
 15 16  2  0
 16 17  1  0
 16 18  1  0
 18 19  2  0
 11 20  2  0
 20 21  1  0
 21 22  1  0
 22 23  1  0
 23 24  2  0
 24 25  1  0
 25 26  2  0
 26 27  1  0
 27 28  2  0
 27 29  1  0
 29 30  2  0
 30 31  1  0
 30 32  1  0
 32 33  1  0
 33 34  1  0
 34 35  2  0
 35 36  1  0
 36 37  2  0
 37 38  1  0
 38 39  2  0
 21 40  2  0
  8  3  1  0
 40  9  1  0
 19 13  1  0
 28 23  1  0
 32 26  1  0
 39 34  1  0
M  END
>  <pIC50>  (570) 
6.5

>  <ChEMBL_ID>  (570) 
CHEMBL3746201

>  <document_journal>  (570) 
Bioorg. Med. Chem. Lett.

>  <bao_endpoint>  (570) 
BAO_0000190

>  <potential_duplicate>  (570) 
None

>  <uo_units>  (570) 
UO_0000065

>  <canonical_smiles>  (570) 
COc1ccc(cc1)c2nc(Nc3ccc(F)cc3)nc(Nc4ccc5c(c4)nc(C)n5Cc6ccccc6)n2

>  <parent_molecule_chembl_id>  (570) 
CHEMBL3746201

>  <assay_type>  (570) 
B

>  <src_id>  (570) 
1

>  <ligand_efficiency>  (570) 
None

>  <standard_flag>  (570) 
True

>  <molecule_chembl_id>  (570) 
CHEMBL3746201

>  <target_organism>  (570) 
Homo sapiens

>  <standard_units>  (570) 
nM

>  <record_id>  (570) 
2741974

>  <document_chembl_id>  (570) 
CHEMBL3745645

>  <bao_format>  (570) 
None

>  <data_validity_description>  (570) 
None

>  <activity_id>  (570) 
16423630

>  <standard_type>  (570) 
IC50

>  <target_chembl_id>  (570) 
CHEMBL202

>  <data_validity_comment>  (570) 
None

>  <published_value>  (570) 
0.32

>  <document_year>  (570) 
2016

>  <target_pref_name>  (570) 
Dihydrofolate reductase

>  <assay_chembl_id>  (570) 
CHEMBL3750438

>  <standard_relation>  (570) 
=

>  <assay_description>  (570) 
Inhibition of human recombinant DHFR expressed in Escherichia coli by spectrophotometric analysis

>  <published_relation>  (570) 
=

>  <standard_value>  (570) 
320

>  <qudt_units>  (570) 
http://www.openphacts.org/units/Nanomolar

>  <target_tax_id>  (570) 
9606

>  <bao_label>  (570) 
None

>  <published_units>  (570) 
uM

>  <pchembl_value>  (570) 
6.5

>  <published_type>  (570) 
IC50

>  <activity_comment>  (570) 
None

$$$$

     RDKit          

 33 37  0  0  0  0  0  0  0  0999 V2000
    0.0000    0.0000    0.0000 C   0  0  0  0  0  0  0  0  0  0  0  0
    0.0000    0.0000    0.0000 C   0  0  0  0  0  0  0  0  0  0  0  0
    0.0000    0.0000    0.0000 N   0  0  0  0  0  0  0  0  0  0  0  0
    0.0000    0.0000    0.0000 C   0  0  0  0  0  0  0  0  0  0  0  0
    0.0000    0.0000    0.0000 C   0  0  0  0  0  0  0  0  0  0  0  0
    0.0000    0.0000    0.0000 C   0  0  0  0  0  0  0  0  0  0  0  0
    0.0000    0.0000    0.0000 C   0  0  0  0  0  0  0  0  0  0  0  0
    0.0000    0.0000    0.0000 N   0  0  0  0  0  0  0  0  0  0  0  0
    0.0000    0.0000    0.0000 C   0  0  0  0  0  0  0  0  0  0  0  0
    0.0000    0.0000    0.0000 N   0  0  0  0  0  0  0  0  0  0  0  0
    0.0000    0.0000    0.0000 C   0  0  0  0  0  0  0  0  0  0  0  0
    0.0000    0.0000    0.0000 Cl  0  0  0  0  0  0  0  0  0  0  0  0
    0.0000    0.0000    0.0000 N   0  0  0  0  0  0  0  0  0  0  0  0
    0.0000    0.0000    0.0000 C   0  0  0  0  0  0  0  0  0  0  0  0
    0.0000    0.0000    0.0000 N   0  0  0  0  0  0  0  0  0  0  0  0
    0.0000    0.0000    0.0000 C   0  0  0  0  0  0  0  0  0  0  0  0
    0.0000    0.0000    0.0000 C   0  0  0  0  0  0  0  0  0  0  0  0
    0.0000    0.0000    0.0000 C   0  0  0  0  0  0  0  0  0  0  0  0
    0.0000    0.0000    0.0000 C   0  0  0  0  0  0  0  0  0  0  0  0
    0.0000    0.0000    0.0000 F   0  0  0  0  0  0  0  0  0  0  0  0
    0.0000    0.0000    0.0000 C   0  0  0  0  0  0  0  0  0  0  0  0
    0.0000    0.0000    0.0000 C   0  0  0  0  0  0  0  0  0  0  0  0
    0.0000    0.0000    0.0000 N   0  0  0  0  0  0  0  0  0  0  0  0
    0.0000    0.0000    0.0000 C   0  0  0  0  0  0  0  0  0  0  0  0
    0.0000    0.0000    0.0000 C   0  0  0  0  0  0  0  0  0  0  0  0
    0.0000    0.0000    0.0000 N   0  0  0  0  0  0  0  0  0  0  0  0
    0.0000    0.0000    0.0000 C   0  0  0  0  0  0  0  0  0  0  0  0
    0.0000    0.0000    0.0000 C   0  0  0  0  0  0  0  0  0  0  0  0
    0.0000    0.0000    0.0000 C   0  0  0  0  0  0  0  0  0  0  0  0
    0.0000    0.0000    0.0000 C   0  0  0  0  0  0  0  0  0  0  0  0
    0.0000    0.0000    0.0000 C   0  0  0  0  0  0  0  0  0  0  0  0
    0.0000    0.0000    0.0000 C   0  0  0  0  0  0  0  0  0  0  0  0
    0.0000    0.0000    0.0000 C   0  0  0  0  0  0  0  0  0  0  0  0
  1  2  1  0
  2  3  2  0
  3  4  1  0
  4  5  2  0
  5  6  1  0
  6  7  2  0
  7  8  1  0
  8  9  1  0
  9 10  2  0
 10 11  1  0
 11 12  1  0
 11 13  2  0
 13 14  1  0
 14 15  1  0
 15 16  1  0
 16 17  2  0
 17 18  1  0
 18 19  2  0
 19 20  1  0
 19 21  1  0
 21 22  2  0
 14 23  2  0
  7 24  1  0
 24 25  2  0
 25 26  1  0
 26 27  1  0
 27 28  1  0
 28 29  2  0
 29 30  1  0
 30 31  2  0
 31 32  1  0
 32 33  2  0
 26  2  1  0
 25  4  1  0
 23  9  1  0
 22 16  1  0
 33 28  1  0
M  END
>  <pIC50>  (571) 
6.51

>  <ChEMBL_ID>  (571) 
CHEMBL3746172

>  <document_journal>  (571) 
Bioorg. Med. Chem. Lett.

>  <bao_endpoint>  (571) 
BAO_0000190

>  <potential_duplicate>  (571) 
None

>  <uo_units>  (571) 
UO_0000065

>  <canonical_smiles>  (571) 
Cc1nc2ccc(Nc3nc(Cl)nc(Nc4ccc(F)cc4)n3)cc2n1Cc5ccccc5

>  <parent_molecule_chembl_id>  (571) 
CHEMBL3746172

>  <assay_type>  (571) 
B

>  <src_id>  (571) 
1

>  <ligand_efficiency>  (571) 
None

>  <standard_flag>  (571) 
True

>  <molecule_chembl_id>  (571) 
CHEMBL3746172

>  <target_organism>  (571) 
Homo sapiens

>  <standard_units>  (571) 
nM

>  <record_id>  (571) 
2741968

>  <document_chembl_id>  (571) 
CHEMBL3745645

>  <bao_format>  (571) 
None

>  <data_validity_description>  (571) 
None

>  <activity_id>  (571) 
16424498

>  <standard_type>  (571) 
IC50

>  <target_chembl_id>  (571) 
CHEMBL202

>  <data_validity_comment>  (571) 
None

>  <published_value>  (571) 
0.31

>  <document_year>  (571) 
2016

>  <target_pref_name>  (571) 
Dihydrofolate reductase

>  <assay_chembl_id>  (571) 
CHEMBL3750438

>  <standard_relation>  (571) 
=

>  <assay_description>  (571) 
Inhibition of human recombinant DHFR expressed in Escherichia coli by spectrophotometric analysis

>  <published_relation>  (571) 
=

>  <standard_value>  (571) 
310

>  <qudt_units>  (571) 
http://www.openphacts.org/units/Nanomolar

>  <target_tax_id>  (571) 
9606

>  <bao_label>  (571) 
None

>  <published_units>  (571) 
uM

>  <pchembl_value>  (571) 
6.51

>  <published_type>  (571) 
IC50

>  <activity_comment>  (571) 
None

$$$$

     RDKit          

 23 25  0  0  0  0  0  0  0  0999 V2000
    0.0000    0.0000    0.0000 C   0  0  0  0  0  0  0  0  0  0  0  0
    0.0000    0.0000    0.0000 C   0  0  0  0  0  0  0  0  0  0  0  0
    0.0000    0.0000    0.0000 C   0  0  0  0  0  0  0  0  0  0  0  0
    0.0000    0.0000    0.0000 C   0  0  0  0  0  0  0  0  0  0  0  0
    0.0000    0.0000    0.0000 C   0  0  0  0  0  0  0  0  0  0  0  0
    0.0000    0.0000    0.0000 C   0  0  0  0  0  0  0  0  0  0  0  0
    0.0000    0.0000    0.0000 O   0  0  0  0  0  0  0  0  0  0  0  0
    0.0000    0.0000    0.0000 C   0  0  0  0  0  0  0  0  0  0  0  0
    0.0000    0.0000    0.0000 C   0  0  0  0  0  0  0  0  0  0  0  0
    0.0000    0.0000    0.0000 C   0  0  0  0  0  0  0  0  0  0  0  0
    0.0000    0.0000    0.0000 C   0  0  0  0  0  0  0  0  0  0  0  0
    0.0000    0.0000    0.0000 C   0  0  0  0  0  0  0  0  0  0  0  0
    0.0000    0.0000    0.0000 C   0  0  0  0  0  0  0  0  0  0  0  0
    0.0000    0.0000    0.0000 C   0  0  0  0  0  0  0  0  0  0  0  0
    0.0000    0.0000    0.0000 N   0  0  0  0  0  0  0  0  0  0  0  0
    0.0000    0.0000    0.0000 C   0  0  0  0  0  0  0  0  0  0  0  0
    0.0000    0.0000    0.0000 N   0  0  0  0  0  0  0  0  0  0  0  0
    0.0000    0.0000    0.0000 N   0  0  0  0  0  0  0  0  0  0  0  0
    0.0000    0.0000    0.0000 C   0  0  0  0  0  0  0  0  0  0  0  0
    0.0000    0.0000    0.0000 N   0  0  0  0  0  0  0  0  0  0  0  0
    0.0000    0.0000    0.0000 N   0  0  0  0  0  0  0  0  0  0  0  0
    0.0000    0.0000    0.0000 C   0  0  0  0  0  0  0  0  0  0  0  0
    0.0000    0.0000    0.0000 C   0  0  0  0  0  0  0  0  0  0  0  0
  1  2  1  0
  2  3  2  0
  3  4  1  0
  4  5  2  0
  5  6  1  0
  6  7  1  0
  7  8  1  0
  8  9  2  0
  9 10  1  0
 10 11  2  0
 11 12  1  0
 12 13  2  0
 11 14  1  0
 14 15  2  0
 15 16  1  0
 16 17  1  0
 16 18  2  0
 18 19  1  0
 19 20  1  0
 19 21  2  0
  6 22  2  0
 22 23  1  0
 22  2  1  0
 13  8  1  0
 21 14  1  0
M  END
>  <pIC50>  (572) 
4.38

>  <ChEMBL_ID>  (572) 
CHEMBL3752202

>  <document_journal>  (572) 
ACS Med. Chem. Lett.

>  <bao_endpoint>  (572) 
BAO_0000190

>  <potential_duplicate>  (572) 
None

>  <uo_units>  (572) 
UO_0000065

>  <canonical_smiles>  (572) 
Cc1cccc(Oc2ccc(cc2)c3nc(N)nc(N)n3)c1C

>  <parent_molecule_chembl_id>  (572) 
CHEMBL3752202

>  <assay_type>  (572) 
B

>  <src_id>  (572) 
1

>  <ligand_efficiency>  (572) 
None

>  <standard_flag>  (572) 
True

>  <molecule_chembl_id>  (572) 
CHEMBL3752202

>  <target_organism>  (572) 
Homo sapiens

>  <standard_units>  (572) 
nM

>  <record_id>  (572) 
2744816

>  <document_chembl_id>  (572) 
CHEMBL3751663

>  <bao_format>  (572) 
None

>  <data_validity_description>  (572) 
None

>  <activity_id>  (572) 
16442042

>  <standard_type>  (572) 
IC50

>  <target_chembl_id>  (572) 
CHEMBL202

>  <data_validity_comment>  (572) 
None

>  <published_value>  (572) 
42

>  <document_year>  (572) 
2015

>  <target_pref_name>  (572) 
Dihydrofolate reductase

>  <assay_chembl_id>  (572) 
CHEMBL3755622

>  <standard_relation>  (572) 
=

>  <assay_description>  (572) 
Inhibition of human DHFR using 45 uM DHF as substrate by spectrophotometry

>  <published_relation>  (572) 
=

>  <standard_value>  (572) 
42000

>  <qudt_units>  (572) 
http://www.openphacts.org/units/Nanomolar

>  <target_tax_id>  (572) 
9606

>  <bao_label>  (572) 
None

>  <published_units>  (572) 
uM

>  <pchembl_value>  (572) 
4.38

>  <published_type>  (572) 
IC50

>  <activity_comment>  (572) 
None

$$$$

     RDKit          

 16 17  0  0  0  0  0  0  0  0999 V2000
    0.0000    0.0000    0.0000 C   0  0  0  0  0  0  0  0  0  0  0  0
    0.0000    0.0000    0.0000 C   0  0  0  0  0  0  0  0  0  0  0  0
    0.0000    0.0000    0.0000 C   0  0  0  0  0  0  0  0  0  0  0  0
    0.0000    0.0000    0.0000 N   0  0  0  0  0  0  0  0  0  0  0  0
    0.0000    0.0000    0.0000 C   0  0  0  0  0  0  0  0  0  0  0  0
    0.0000    0.0000    0.0000 N   0  0  0  0  0  0  0  0  0  0  0  0
    0.0000    0.0000    0.0000 N   0  0  0  0  0  0  0  0  0  0  0  0
    0.0000    0.0000    0.0000 C   0  0  0  0  0  0  0  0  0  0  0  0
    0.0000    0.0000    0.0000 N   0  0  0  0  0  0  0  0  0  0  0  0
    0.0000    0.0000    0.0000 N   0  0  0  0  0  0  0  0  0  0  0  0
    0.0000    0.0000    0.0000 C   0  0  0  0  0  0  0  0  0  0  0  0
    0.0000    0.0000    0.0000 C   0  0  0  0  0  0  0  0  0  0  0  0
    0.0000    0.0000    0.0000 C   0  0  0  0  0  0  0  0  0  0  0  0
    0.0000    0.0000    0.0000 C   0  0  0  0  0  0  0  0  0  0  0  0
    0.0000    0.0000    0.0000 C   0  0  0  0  0  0  0  0  0  0  0  0
    0.0000    0.0000    0.0000 C   0  0  0  0  0  0  0  0  0  0  0  0
  1  2  1  0
  2  3  1  0
  2  4  1  0
  4  5  2  0
  5  6  1  0
  5  7  1  0
  7  8  2  0
  8  9  1  0
  8 10  1  0
 10 11  1  0
 11 12  2  0
 12 13  1  0
 13 14  2  0
 14 15  1  0
 15 16  2  0
 10  2  1  0
 16 11  1  0
M  END
>  <pIC50>  (573) 
5.03

>  <ChEMBL_ID>  (573) 
CHEMBL532909

>  <document_journal>  (573) 
Eur. J. Med. Chem.

>  <bao_endpoint>  (573) 
BAO_0000190

>  <potential_duplicate>  (573) 
None

>  <uo_units>  (573) 
UO_0000065

>  <canonical_smiles>  (573) 
Cl.CC1(C)N=C(N)N=C(N)N1c2ccccc2

>  <parent_molecule_chembl_id>  (573) 
CHEMBL6742

>  <assay_type>  (573) 
B

>  <src_id>  (573) 
1

>  <ligand_efficiency>  (573) 
None

>  <standard_flag>  (573) 
True

>  <molecule_chembl_id>  (573) 
CHEMBL532909

>  <target_organism>  (573) 
Homo sapiens

>  <standard_units>  (573) 
nM

>  <record_id>  (573) 
2769214

>  <document_chembl_id>  (573) 
CHEMBL3784942

>  <bao_format>  (573) 
None

>  <data_validity_description>  (573) 
None

>  <activity_id>  (573) 
16529568

>  <standard_type>  (573) 
IC50

>  <target_chembl_id>  (573) 
CHEMBL202

>  <data_validity_comment>  (573) 
None

>  <published_value>  (573) 
9.4

>  <document_year>  (573) 
2016

>  <target_pref_name>  (573) 
Dihydrofolate reductase

>  <assay_chembl_id>  (573) 
CHEMBL3788092

>  <standard_relation>  (573) 
=

>  <assay_description>  (573) 
Inhibition of human recombinant dihydrofolate reductase using dihydrofolate as substrate measured every 30 secs over 6 mins by UV/visible spectrophotometer in presence of NADPH

>  <published_relation>  (573) 
=

>  <standard_value>  (573) 
9400

>  <qudt_units>  (573) 
http://www.openphacts.org/units/Nanomolar

>  <target_tax_id>  (573) 
9606

>  <bao_label>  (573) 
None

>  <published_units>  (573) 
uM

>  <pchembl_value>  (573) 
5.03

>  <published_type>  (573) 
IC50

>  <activity_comment>  (573) 
None

$$$$

     RDKit          

 26 28  0  0  0  0  0  0  0  0999 V2000
    0.0000    0.0000    0.0000 C   0  0  0  0  0  0  0  0  0  0  0  0
    0.0000    0.0000    0.0000 C   0  0  0  0  0  0  0  0  0  0  0  0
    0.0000    0.0000    0.0000 C   0  0  0  0  0  0  0  0  0  0  0  0
    0.0000    0.0000    0.0000 N   0  0  0  0  0  0  0  0  0  0  0  0
    0.0000    0.0000    0.0000 C   0  0  0  0  0  0  0  0  0  0  0  0
    0.0000    0.0000    0.0000 N   0  0  0  0  0  0  0  0  0  0  0  0
    0.0000    0.0000    0.0000 N   0  0  0  0  0  0  0  0  0  0  0  0
    0.0000    0.0000    0.0000 C   0  0  0  0  0  0  0  0  0  0  0  0
    0.0000    0.0000    0.0000 N   0  0  0  0  0  0  0  0  0  0  0  0
    0.0000    0.0000    0.0000 N   0  0  0  0  0  0  0  0  0  0  0  0
    0.0000    0.0000    0.0000 C   0  0  0  0  0  0  0  0  0  0  0  0
    0.0000    0.0000    0.0000 C   0  0  0  0  0  0  0  0  0  0  0  0
    0.0000    0.0000    0.0000 C   0  0  0  0  0  0  0  0  0  0  0  0
    0.0000    0.0000    0.0000 C   0  0  0  0  0  0  0  0  0  0  0  0
    0.0000    0.0000    0.0000 C   0  0  0  0  0  0  0  0  0  0  0  0
    0.0000    0.0000    0.0000 C   0  0  0  0  0  0  0  0  0  0  0  0
    0.0000    0.0000    0.0000 C   0  0  0  0  0  0  0  0  0  0  0  0
    0.0000    0.0000    0.0000 O   0  0  0  0  0  0  0  0  0  0  0  0
    0.0000    0.0000    0.0000 C   0  0  0  0  0  0  0  0  0  0  0  0
    0.0000    0.0000    0.0000 C   0  0  0  0  0  0  0  0  0  0  0  0
    0.0000    0.0000    0.0000 C   0  0  0  0  0  0  0  0  0  0  0  0
    0.0000    0.0000    0.0000 C   0  0  0  0  0  0  0  0  0  0  0  0
    0.0000    0.0000    0.0000 C   0  0  0  0  0  0  0  0  0  0  0  0
    0.0000    0.0000    0.0000 C   0  0  0  0  0  0  0  0  0  0  0  0
    0.0000    0.0000    0.0000 C   0  0  0  0  0  0  0  0  0  0  0  0
    0.0000    0.0000    0.0000 C   0  0  0  0  0  0  0  0  0  0  0  0
  1  2  1  0
  2  3  1  0
  2  4  1  0
  4  5  2  0
  5  6  1  0
  5  7  1  0
  7  8  2  0
  8  9  1  0
  8 10  1  0
 10 11  1  0
 11 12  2  0
 12 13  1  0
 13 14  2  0
 14 15  1  0
 15 16  2  0
 14 17  1  0
 17 18  2  0
 17 19  1  0
 19 20  2  0
 20 21  1  0
 21 22  2  0
 22 23  1  0
 23 24  2  0
 24 25  1  0
 25 26  2  0
 10  2  1  0
 16 11  1  0
 26 21  1  0
M  END
>  <pIC50>  (574) 
4.25

>  <ChEMBL_ID>  (574) 
CHEMBL3785981

>  <document_journal>  (574) 
Eur. J. Med. Chem.

>  <bao_endpoint>  (574) 
BAO_0000190

>  <potential_duplicate>  (574) 
None

>  <uo_units>  (574) 
UO_0000065

>  <canonical_smiles>  (574) 
Cl.CC1(C)N=C(N)N=C(N)N1c2ccc(cc2)C(=O)\C=C\c3ccccc3

>  <parent_molecule_chembl_id>  (574) 
CHEMBL3787777

>  <assay_type>  (574) 
B

>  <src_id>  (574) 
1

>  <ligand_efficiency>  (574) 
None

>  <standard_flag>  (574) 
True

>  <molecule_chembl_id>  (574) 
CHEMBL3785981

>  <target_organism>  (574) 
Homo sapiens

>  <standard_units>  (574) 
nM

>  <record_id>  (574) 
2769028

>  <document_chembl_id>  (574) 
CHEMBL3784942

>  <bao_format>  (574) 
None

>  <data_validity_description>  (574) 
None

>  <activity_id>  (574) 
16529573

>  <standard_type>  (574) 
IC50

>  <target_chembl_id>  (574) 
CHEMBL202

>  <data_validity_comment>  (574) 
None

>  <published_value>  (574) 
56.4

>  <document_year>  (574) 
2016

>  <target_pref_name>  (574) 
Dihydrofolate reductase

>  <assay_chembl_id>  (574) 
CHEMBL3788092

>  <standard_relation>  (574) 
=

>  <assay_description>  (574) 
Inhibition of human recombinant dihydrofolate reductase using dihydrofolate as substrate measured every 30 secs over 6 mins by UV/visible spectrophotometer in presence of NADPH

>  <published_relation>  (574) 
=

>  <standard_value>  (574) 
56400

>  <qudt_units>  (574) 
http://www.openphacts.org/units/Nanomolar

>  <target_tax_id>  (574) 
9606

>  <bao_label>  (574) 
None

>  <published_units>  (574) 
uM

>  <pchembl_value>  (574) 
4.25

>  <published_type>  (574) 
IC50

>  <activity_comment>  (574) 
None

$$$$

     RDKit          

 26 28  0  0  0  0  0  0  0  0999 V2000
    0.0000    0.0000    0.0000 C   0  0  0  0  0  0  0  0  0  0  0  0
    0.0000    0.0000    0.0000 C   0  0  0  0  0  0  0  0  0  0  0  0
    0.0000    0.0000    0.0000 C   0  0  0  0  0  0  0  0  0  0  0  0
    0.0000    0.0000    0.0000 N   0  0  0  0  0  0  0  0  0  0  0  0
    0.0000    0.0000    0.0000 C   0  0  0  0  0  0  0  0  0  0  0  0
    0.0000    0.0000    0.0000 N   0  0  0  0  0  0  0  0  0  0  0  0
    0.0000    0.0000    0.0000 N   0  0  0  0  0  0  0  0  0  0  0  0
    0.0000    0.0000    0.0000 C   0  0  0  0  0  0  0  0  0  0  0  0
    0.0000    0.0000    0.0000 N   0  0  0  0  0  0  0  0  0  0  0  0
    0.0000    0.0000    0.0000 N   0  0  0  0  0  0  0  0  0  0  0  0
    0.0000    0.0000    0.0000 C   0  0  0  0  0  0  0  0  0  0  0  0
    0.0000    0.0000    0.0000 C   0  0  0  0  0  0  0  0  0  0  0  0
    0.0000    0.0000    0.0000 C   0  0  0  0  0  0  0  0  0  0  0  0
    0.0000    0.0000    0.0000 C   0  0  0  0  0  0  0  0  0  0  0  0
    0.0000    0.0000    0.0000 C   0  0  0  0  0  0  0  0  0  0  0  0
    0.0000    0.0000    0.0000 C   0  0  0  0  0  0  0  0  0  0  0  0
    0.0000    0.0000    0.0000 C   0  0  0  0  0  0  0  0  0  0  0  0
    0.0000    0.0000    0.0000 O   0  0  0  0  0  0  0  0  0  0  0  0
    0.0000    0.0000    0.0000 C   0  0  0  0  0  0  0  0  0  0  0  0
    0.0000    0.0000    0.0000 C   0  0  0  0  0  0  0  0  0  0  0  0
    0.0000    0.0000    0.0000 C   0  0  0  0  0  0  0  0  0  0  0  0
    0.0000    0.0000    0.0000 C   0  0  0  0  0  0  0  0  0  0  0  0
    0.0000    0.0000    0.0000 C   0  0  0  0  0  0  0  0  0  0  0  0
    0.0000    0.0000    0.0000 C   0  0  0  0  0  0  0  0  0  0  0  0
    0.0000    0.0000    0.0000 C   0  0  0  0  0  0  0  0  0  0  0  0
    0.0000    0.0000    0.0000 C   0  0  0  0  0  0  0  0  0  0  0  0
  1  2  1  0
  2  3  1  0
  2  4  1  0
  4  5  2  0
  5  6  1  0
  5  7  1  0
  7  8  2  0
  8  9  1  0
  8 10  1  0
 10 11  1  0
 11 12  2  0
 12 13  1  0
 13 14  2  0
 14 15  1  0
 15 16  2  0
 15 17  1  0
 17 18  2  0
 17 19  1  0
 19 20  2  0
 20 21  1  0
 21 22  2  0
 22 23  1  0
 23 24  2  0
 24 25  1  0
 25 26  2  0
 10  2  1  0
 16 11  1  0
 26 21  1  0
M  END
>  <pIC50>  (575) 
5.62

>  <ChEMBL_ID>  (575) 
CHEMBL3787397

>  <document_journal>  (575) 
Eur. J. Med. Chem.

>  <bao_endpoint>  (575) 
BAO_0000190

>  <potential_duplicate>  (575) 
None

>  <uo_units>  (575) 
UO_0000065

>  <canonical_smiles>  (575) 
Cl.CC1(C)N=C(N)N=C(N)N1c2cccc(c2)C(=O)\C=C\c3ccccc3

>  <parent_molecule_chembl_id>  (575) 
CHEMBL3787778

>  <assay_type>  (575) 
B

>  <src_id>  (575) 
1

>  <ligand_efficiency>  (575) 
None

>  <standard_flag>  (575) 
True

>  <molecule_chembl_id>  (575) 
CHEMBL3787397

>  <target_organism>  (575) 
Homo sapiens

>  <standard_units>  (575) 
nM

>  <record_id>  (575) 
2769029

>  <document_chembl_id>  (575) 
CHEMBL3784942

>  <bao_format>  (575) 
None

>  <data_validity_description>  (575) 
None

>  <activity_id>  (575) 
16529574

>  <standard_type>  (575) 
IC50

>  <target_chembl_id>  (575) 
CHEMBL202

>  <data_validity_comment>  (575) 
None

>  <published_value>  (575) 
2.4

>  <document_year>  (575) 
2016

>  <target_pref_name>  (575) 
Dihydrofolate reductase

>  <assay_chembl_id>  (575) 
CHEMBL3788092

>  <standard_relation>  (575) 
=

>  <assay_description>  (575) 
Inhibition of human recombinant dihydrofolate reductase using dihydrofolate as substrate measured every 30 secs over 6 mins by UV/visible spectrophotometer in presence of NADPH

>  <published_relation>  (575) 
=

>  <standard_value>  (575) 
2400

>  <qudt_units>  (575) 
http://www.openphacts.org/units/Nanomolar

>  <target_tax_id>  (575) 
9606

>  <bao_label>  (575) 
None

>  <published_units>  (575) 
uM

>  <pchembl_value>  (575) 
5.62

>  <published_type>  (575) 
IC50

>  <activity_comment>  (575) 
None

$$$$

     RDKit          

 22 24  0  0  0  0  0  0  0  0999 V2000
    0.0000    0.0000    0.0000 C   0  0  0  0  0  0  0  0  0  0  0  0
    0.0000    0.0000    0.0000 O   0  0  0  0  0  0  0  0  0  0  0  0
    0.0000    0.0000    0.0000 C   0  0  0  0  0  0  0  0  0  0  0  0
    0.0000    0.0000    0.0000 C   0  0  0  0  0  0  0  0  0  0  0  0
    0.0000    0.0000    0.0000 C   0  0  0  0  0  0  0  0  0  0  0  0
    0.0000    0.0000    0.0000 C   0  0  0  0  0  0  0  0  0  0  0  0
    0.0000    0.0000    0.0000 C   0  0  0  0  0  0  0  0  0  0  0  0
    0.0000    0.0000    0.0000 C   0  0  0  0  0  0  0  0  0  0  0  0
    0.0000    0.0000    0.0000 O   0  0  0  0  0  0  0  0  0  0  0  0
    0.0000    0.0000    0.0000 N   0  0  0  0  0  0  0  0  0  0  0  0
    0.0000    0.0000    0.0000 C   0  0  0  0  0  0  0  0  0  0  0  0
    0.0000    0.0000    0.0000 C   0  0  0  0  0  0  0  0  0  0  0  0
    0.0000    0.0000    0.0000 C   0  0  0  0  0  0  0  0  0  0  0  0
    0.0000    0.0000    0.0000 C   0  0  0  0  0  0  0  0  0  0  0  0
    0.0000    0.0000    0.0000 C   0  0  0  0  0  0  0  0  0  0  0  0
    0.0000    0.0000    0.0000 C   0  0  0  0  0  0  0  0  0  0  0  0
    0.0000    0.0000    0.0000 C   0  0  0  0  0  0  0  0  0  0  0  0
    0.0000    0.0000    0.0000 C   0  0  0  0  0  0  0  0  0  0  0  0
    0.0000    0.0000    0.0000 O   0  0  0  0  0  0  0  0  0  0  0  0
    0.0000    0.0000    0.0000 C   0  0  0  0  0  0  0  0  0  0  0  0
    0.0000    0.0000    0.0000 C   0  0  0  0  0  0  0  0  0  0  0  0
    0.0000    0.0000    0.0000 O   0  0  0  0  0  0  0  0  0  0  0  0
  1  2  1  0
  2  3  1  0
  3  4  2  0
  4  5  1  0
  5  6  1  0
  6  7  2  0
  7  8  1  0
  8  9  2  0
  8 10  1  0
 10 11  1  0
 11 12  2  0
 12 13  1  0
 13 14  2  0
 14 15  1  0
 15 16  2  0
  5 17  2  0
 17 18  1  0
 18 19  1  0
 19 20  1  0
 18 21  2  0
 21 22  1  0
 21  3  1  0
  7 16  1  0
 16 11  1  0
M  END
>  <pIC50>  (576) 
6.3

>  <ChEMBL_ID>  (576) 
CHEMBL2163553

>  <document_journal>  (576) 
Bioorg. Med. Chem. Lett.

>  <bao_endpoint>  (576) 
BAO_0000190

>  <potential_duplicate>  (576) 
None

>  <uo_units>  (576) 
UO_0000065

>  <canonical_smiles>  (576) 
COc1cc(\C=C\2/C(=O)Nc3ccccc23)cc(OC)c1O

>  <parent_molecule_chembl_id>  (576) 
CHEMBL2163553

>  <assay_type>  (576) 
B

>  <src_id>  (576) 
1

>  <ligand_efficiency>  (576) 
None

>  <standard_flag>  (576) 
True

>  <molecule_chembl_id>  (576) 
CHEMBL2163553

>  <target_organism>  (576) 
Homo sapiens

>  <standard_units>  (576) 
nM

>  <record_id>  (576) 
2768836

>  <document_chembl_id>  (576) 
CHEMBL3785084

>  <bao_format>  (576) 
None

>  <data_validity_description>  (576) 
None

>  <activity_id>  (576) 
16535407

>  <standard_type>  (576) 
IC50

>  <target_chembl_id>  (576) 
CHEMBL202

>  <data_validity_comment>  (576) 
None

>  <published_value>  (576) 
0.5

>  <document_year>  (576) 
2016

>  <target_pref_name>  (576) 
Dihydrofolate reductase

>  <assay_chembl_id>  (576) 
CHEMBL3789540

>  <standard_relation>  (576) 
=

>  <assay_description>  (576) 
Inhibition of human DHFR assessed as conversion of dihydrofolic acid to tetrahydrfolic acid by enzyme immunoassay in presence of NADPH

>  <published_relation>  (576) 
=

>  <standard_value>  (576) 
500

>  <qudt_units>  (576) 
http://www.openphacts.org/units/Nanomolar

>  <target_tax_id>  (576) 
9606

>  <bao_label>  (576) 
None

>  <published_units>  (576) 
uM

>  <pchembl_value>  (576) 
6.3

>  <published_type>  (576) 
IC50

>  <activity_comment>  (576) 
None

$$$$

     RDKit          

 52 59  0  0  0  0  0  0  0  0999 V2000
    0.0000    0.0000    0.0000 C   0  0  0  0  0  0  0  0  0  0  0  0
    0.0000    0.0000    0.0000 C   0  0  0  0  0  0  0  0  0  0  0  0
    0.0000    0.0000    0.0000 N   0  0  0  0  0  0  0  0  0  0  0  0
    0.0000    0.0000    0.0000 N   0  0  0  0  0  0  0  0  0  0  0  0
    0.0000    0.0000    0.0000 C   0  0  0  0  0  0  0  0  0  0  0  0
    0.0000    0.0000    0.0000 O   0  0  0  0  0  0  0  0  0  0  0  0
    0.0000    0.0000    0.0000 C   0  0  0  0  0  0  0  0  0  0  0  0
    0.0000    0.0000    0.0000 C   0  0  0  0  0  0  0  0  0  0  0  0
    0.0000    0.0000    0.0000 C   0  0  0  0  0  0  0  0  0  0  0  0
    0.0000    0.0000    0.0000 C   0  0  0  0  0  0  0  0  0  0  0  0
    0.0000    0.0000    0.0000 N   0  0  0  0  0  0  0  0  0  0  0  0
    0.0000    0.0000    0.0000 C   0  0  0  0  0  0  0  0  0  0  0  0
    0.0000    0.0000    0.0000 C   0  0  0  0  0  0  0  0  0  0  0  0
    0.0000    0.0000    0.0000 O   0  0  0  0  0  0  0  0  0  0  0  0
    0.0000    0.0000    0.0000 C   0  0  0  0  0  0  0  0  0  0  0  0
    0.0000    0.0000    0.0000 N   0  0  0  0  0  0  0  0  0  0  0  0
    0.0000    0.0000    0.0000 C   0  0  0  0  0  0  0  0  0  0  0  0
    0.0000    0.0000    0.0000 C   0  0  0  0  0  0  0  0  0  0  0  0
    0.0000    0.0000    0.0000 C   0  0  0  0  0  0  0  0  0  0  0  0
    0.0000    0.0000    0.0000 C   0  0  0  0  0  0  0  0  0  0  0  0
    0.0000    0.0000    0.0000 C   0  0  0  0  0  0  0  0  0  0  0  0
    0.0000    0.0000    0.0000 N   0  0  0  0  0  0  0  0  0  0  0  0
    0.0000    0.0000    0.0000 N   0  0  0  0  0  0  0  0  0  0  0  0
    0.0000    0.0000    0.0000 C   0  0  0  0  0  0  0  0  0  0  0  0
    0.0000    0.0000    0.0000 O   0  0  0  0  0  0  0  0  0  0  0  0
    0.0000    0.0000    0.0000 C   0  0  0  0  0  0  0  0  0  0  0  0
    0.0000    0.0000    0.0000 C   0  0  0  0  0  0  0  0  0  0  0  0
    0.0000    0.0000    0.0000 C   0  0  0  0  0  0  0  0  0  0  0  0
    0.0000    0.0000    0.0000 C   0  0  0  0  0  0  0  0  0  0  0  0
    0.0000    0.0000    0.0000 C   0  0  0  0  0  0  0  0  0  0  0  0
    0.0000    0.0000    0.0000 Cl  0  0  0  0  0  0  0  0  0  0  0  0
    0.0000    0.0000    0.0000 C   0  0  0  0  0  0  0  0  0  0  0  0
    0.0000    0.0000    0.0000 C   0  0  0  0  0  0  0  0  0  0  0  0
    0.0000    0.0000    0.0000 C   0  0  0  0  0  0  0  0  0  0  0  0
    0.0000    0.0000    0.0000 C   0  0  0  0  0  0  0  0  0  0  0  0
    0.0000    0.0000    0.0000 C   0  0  0  0  0  0  0  0  0  0  0  0
    0.0000    0.0000    0.0000 C   0  0  0  0  0  0  0  0  0  0  0  0
    0.0000    0.0000    0.0000 C   0  0  0  0  0  0  0  0  0  0  0  0
    0.0000    0.0000    0.0000 C   0  0  0  0  0  0  0  0  0  0  0  0
    0.0000    0.0000    0.0000 C   0  0  0  0  0  0  0  0  0  0  0  0
    0.0000    0.0000    0.0000 C   0  0  0  0  0  0  0  0  0  0  0  0
    0.0000    0.0000    0.0000 C   0  0  0  0  0  0  0  0  0  0  0  0
    0.0000    0.0000    0.0000 C   0  0  0  0  0  0  0  0  0  0  0  0
    0.0000    0.0000    0.0000 C   0  0  0  0  0  0  0  0  0  0  0  0
    0.0000    0.0000    0.0000 C   0  0  0  0  0  0  0  0  0  0  0  0
    0.0000    0.0000    0.0000 C   0  0  0  0  0  0  0  0  0  0  0  0
    0.0000    0.0000    0.0000 C   0  0  0  0  0  0  0  0  0  0  0  0
    0.0000    0.0000    0.0000 C   0  0  0  0  0  0  0  0  0  0  0  0
    0.0000    0.0000    0.0000 C   0  0  0  0  0  0  0  0  0  0  0  0
    0.0000    0.0000    0.0000 C   0  0  0  0  0  0  0  0  0  0  0  0
    0.0000    0.0000    0.0000 Cl  0  0  0  0  0  0  0  0  0  0  0  0
    0.0000    0.0000    0.0000 C   0  0  0  0  0  0  0  0  0  0  0  0
  1  2  1  0
  2  3  2  0
  3  4  1  0
  4  5  1  0
  5  6  2  0
  5  7  1  0
  7  8  2  0
  8  9  1  0
  9 10  2  0
 10 11  1  0
 11 12  1  0
 12 13  1  0
 13 14  1  0
 13 15  1  0
 15 16  1  0
 16 17  1  0
 17 18  2  0
 18 19  1  0
 19 20  2  0
 20 21  1  0
 21 22  2  0
 22 23  1  0
 23 24  1  0
 24 25  2  0
 23 26  1  0
 26 27  2  0
 27 28  1  0
 28 29  2  0
 29 30  1  0
 30 31  1  0
 30 32  2  0
 21 33  1  0
 18 34  1  0
 34 35  2  0
 35 36  1  0
 36 37  2  0
 37 38  1  0
 38 39  2  0
 11 40  1  0
 40 41  2  0
 41 42  1  0
 42 43  2  0
 43 44  1  0
 44 45  2  0
  4 46  1  0
 46 47  2  0
 47 48  1  0
 48 49  2  0
 49 50  1  0
 50 51  1  0
 50 52  2  0
  7  2  1  0
 45  9  1  0
 39 16  1  0
 20 24  1  0
 32 26  1  0
 39 34  1  0
 45 40  1  0
 52 46  1  0
M  END
>  <pIC50>  (577) 
4.52

>  <ChEMBL_ID>  (577) 
CHEMBL3785354

>  <document_journal>  (577) 
Bioorg. Med. Chem. Lett.

>  <bao_endpoint>  (577) 
BAO_0000190

>  <potential_duplicate>  (577) 
None

>  <uo_units>  (577) 
UO_0000065

>  <canonical_smiles>  (577) 
CC1=NN(C(=O)/C/1=C\c2cn(CC(O)Cn3cc(\C=C/4\C(=NN(C4=O)c5cccc(Cl)c5)C)c6ccccc36)c7ccccc27)c8cccc(Cl)c8

>  <parent_molecule_chembl_id>  (577) 
CHEMBL3785354

>  <assay_type>  (577) 
B

>  <src_id>  (577) 
1

>  <ligand_efficiency>  (577) 
None

>  <standard_flag>  (577) 
True

>  <molecule_chembl_id>  (577) 
CHEMBL3785354

>  <target_organism>  (577) 
Homo sapiens

>  <standard_units>  (577) 
nM

>  <record_id>  (577) 
2768835

>  <document_chembl_id>  (577) 
CHEMBL3785084

>  <bao_format>  (577) 
None

>  <data_validity_description>  (577) 
None

>  <activity_id>  (577) 
16535408

>  <standard_type>  (577) 
IC50

>  <target_chembl_id>  (577) 
CHEMBL202

>  <data_validity_comment>  (577) 
None

>  <published_value>  (577) 
30

>  <document_year>  (577) 
2016

>  <target_pref_name>  (577) 
Dihydrofolate reductase

>  <assay_chembl_id>  (577) 
CHEMBL3789540

>  <standard_relation>  (577) 
=

>  <assay_description>  (577) 
Inhibition of human DHFR assessed as conversion of dihydrofolic acid to tetrahydrfolic acid by enzyme immunoassay in presence of NADPH

>  <published_relation>  (577) 
=

>  <standard_value>  (577) 
30000

>  <qudt_units>  (577) 
http://www.openphacts.org/units/Nanomolar

>  <target_tax_id>  (577) 
9606

>  <bao_label>  (577) 
None

>  <published_units>  (577) 
uM

>  <pchembl_value>  (577) 
4.52

>  <published_type>  (577) 
IC50

>  <activity_comment>  (577) 
None

$$$$

     RDKit          

 46 51  0  0  0  0  0  0  0  0999 V2000
    0.0000    0.0000    0.0000 C   0  0  0  0  0  0  0  0  0  0  0  0
    0.0000    0.0000    0.0000 N   0  0  0  0  0  0  0  0  0  0  0  0
    0.0000    0.0000    0.0000 C   0  0  0  0  0  0  0  0  0  0  0  0
    0.0000    0.0000    0.0000 O   0  0  0  0  0  0  0  0  0  0  0  0
    0.0000    0.0000    0.0000 N   0  0  0  0  0  0  0  0  0  0  0  0
    0.0000    0.0000    0.0000 C   0  0  0  0  0  0  0  0  0  0  0  0
    0.0000    0.0000    0.0000 C   0  0  0  0  0  0  0  0  0  0  0  0
    0.0000    0.0000    0.0000 O   0  0  0  0  0  0  0  0  0  0  0  0
    0.0000    0.0000    0.0000 C   0  0  0  0  0  0  0  0  0  0  0  0
    0.0000    0.0000    0.0000 C   0  0  0  0  0  0  0  0  0  0  0  0
    0.0000    0.0000    0.0000 C   0  0  0  0  0  0  0  0  0  0  0  0
    0.0000    0.0000    0.0000 C   0  0  0  0  0  0  0  0  0  0  0  0
    0.0000    0.0000    0.0000 N   0  0  0  0  0  0  0  0  0  0  0  0
    0.0000    0.0000    0.0000 C   0  0  0  0  0  0  0  0  0  0  0  0
    0.0000    0.0000    0.0000 C   0  0  0  0  0  0  0  0  0  0  0  0
    0.0000    0.0000    0.0000 O   0  0  0  0  0  0  0  0  0  0  0  0
    0.0000    0.0000    0.0000 C   0  0  0  0  0  0  0  0  0  0  0  0
    0.0000    0.0000    0.0000 N   0  0  0  0  0  0  0  0  0  0  0  0
    0.0000    0.0000    0.0000 C   0  0  0  0  0  0  0  0  0  0  0  0
    0.0000    0.0000    0.0000 C   0  0  0  0  0  0  0  0  0  0  0  0
    0.0000    0.0000    0.0000 C   0  0  0  0  0  0  0  0  0  0  0  0
    0.0000    0.0000    0.0000 C   0  0  0  0  0  0  0  0  0  0  0  0
    0.0000    0.0000    0.0000 C   0  0  0  0  0  0  0  0  0  0  0  0
    0.0000    0.0000    0.0000 O   0  0  0  0  0  0  0  0  0  0  0  0
    0.0000    0.0000    0.0000 N   0  0  0  0  0  0  0  0  0  0  0  0
    0.0000    0.0000    0.0000 C   0  0  0  0  0  0  0  0  0  0  0  0
    0.0000    0.0000    0.0000 C   0  0  0  0  0  0  0  0  0  0  0  0
    0.0000    0.0000    0.0000 O   0  0  0  0  0  0  0  0  0  0  0  0
    0.0000    0.0000    0.0000 N   0  0  0  0  0  0  0  0  0  0  0  0
    0.0000    0.0000    0.0000 C   0  0  0  0  0  0  0  0  0  0  0  0
    0.0000    0.0000    0.0000 C   0  0  0  0  0  0  0  0  0  0  0  0
    0.0000    0.0000    0.0000 O   0  0  0  0  0  0  0  0  0  0  0  0
    0.0000    0.0000    0.0000 C   0  0  0  0  0  0  0  0  0  0  0  0
    0.0000    0.0000    0.0000 C   0  0  0  0  0  0  0  0  0  0  0  0
    0.0000    0.0000    0.0000 C   0  0  0  0  0  0  0  0  0  0  0  0
    0.0000    0.0000    0.0000 C   0  0  0  0  0  0  0  0  0  0  0  0
    0.0000    0.0000    0.0000 C   0  0  0  0  0  0  0  0  0  0  0  0
    0.0000    0.0000    0.0000 C   0  0  0  0  0  0  0  0  0  0  0  0
    0.0000    0.0000    0.0000 C   0  0  0  0  0  0  0  0  0  0  0  0
    0.0000    0.0000    0.0000 C   0  0  0  0  0  0  0  0  0  0  0  0
    0.0000    0.0000    0.0000 C   0  0  0  0  0  0  0  0  0  0  0  0
    0.0000    0.0000    0.0000 C   0  0  0  0  0  0  0  0  0  0  0  0
    0.0000    0.0000    0.0000 C   0  0  0  0  0  0  0  0  0  0  0  0
    0.0000    0.0000    0.0000 C   0  0  0  0  0  0  0  0  0  0  0  0
    0.0000    0.0000    0.0000 C   0  0  0  0  0  0  0  0  0  0  0  0
    0.0000    0.0000    0.0000 O   0  0  0  0  0  0  0  0  0  0  0  0
  1  2  1  0
  2  3  1  0
  3  4  2  0
  3  5  1  0
  5  6  1  0
  5  7  1  0
  7  8  2  0
  7  9  1  0
  9 10  2  3
 10 11  1  0
 11 12  2  0
 12 13  1  0
 13 14  1  0
 14 15  1  0
 15 16  1  0
 15 17  1  0
 17 18  1  0
 18 19  1  0
 19 20  2  0
 20 21  1  0
 21 22  2  3
 22 23  1  0
 23 24  2  0
 23 25  1  0
 25 26  1  0
 25 27  1  0
 27 28  2  0
 27 29  1  0
 29 30  1  0
 29 31  1  0
 31 32  2  0
 20 33  1  0
 33 34  2  0
 34 35  1  0
 35 36  2  0
 36 37  1  0
 37 38  2  0
 13 39  1  0
 39 40  2  0
 40 41  1  0
 41 42  2  0
 42 43  1  0
 43 44  2  0
  9 45  1  0
 45 46  2  0
 45  2  1  0
 44 11  1  0
 38 18  1  0
 31 22  1  0
 38 33  1  0
 44 39  1  0
M  END
>  <pIC50>  (578) 
4.7

>  <ChEMBL_ID>  (578) 
CHEMBL3785302

>  <document_journal>  (578) 
Bioorg. Med. Chem. Lett.

>  <bao_endpoint>  (578) 
BAO_0000190

>  <potential_duplicate>  (578) 
None

>  <uo_units>  (578) 
UO_0000065

>  <canonical_smiles>  (578) 
CN1C(=O)N(C)C(=O)C(=Cc2cn(CC(O)Cn3cc(C=C4C(=O)N(C)C(=O)N(C)C4=O)c5ccccc35)c6ccccc26)C1=O

>  <parent_molecule_chembl_id>  (578) 
CHEMBL3785302

>  <assay_type>  (578) 
B

>  <src_id>  (578) 
1

>  <ligand_efficiency>  (578) 
None

>  <standard_flag>  (578) 
True

>  <molecule_chembl_id>  (578) 
CHEMBL3785302

>  <target_organism>  (578) 
Homo sapiens

>  <standard_units>  (578) 
nM

>  <record_id>  (578) 
2768834

>  <document_chembl_id>  (578) 
CHEMBL3785084

>  <bao_format>  (578) 
None

>  <data_validity_description>  (578) 
None

>  <activity_id>  (578) 
16535409

>  <standard_type>  (578) 
IC50

>  <target_chembl_id>  (578) 
CHEMBL202

>  <data_validity_comment>  (578) 
None

>  <published_value>  (578) 
20

>  <document_year>  (578) 
2016

>  <target_pref_name>  (578) 
Dihydrofolate reductase

>  <assay_chembl_id>  (578) 
CHEMBL3789540

>  <standard_relation>  (578) 
=

>  <assay_description>  (578) 
Inhibition of human DHFR assessed as conversion of dihydrofolic acid to tetrahydrfolic acid by enzyme immunoassay in presence of NADPH

>  <published_relation>  (578) 
=

>  <standard_value>  (578) 
20000

>  <qudt_units>  (578) 
http://www.openphacts.org/units/Nanomolar

>  <target_tax_id>  (578) 
9606

>  <bao_label>  (578) 
None

>  <published_units>  (578) 
uM

>  <pchembl_value>  (578) 
4.7

>  <published_type>  (578) 
IC50

>  <activity_comment>  (578) 
None

$$$$

     RDKit          

 42 47  0  0  0  0  0  0  0  0999 V2000
    0.0000    0.0000    0.0000 O   0  0  0  0  0  0  0  0  0  0  0  0
    0.0000    0.0000    0.0000 C   0  0  0  0  0  0  0  0  0  0  0  0
    0.0000    0.0000    0.0000 C   0  0  0  0  0  0  0  0  0  0  0  0
    0.0000    0.0000    0.0000 N   0  0  0  0  0  0  0  0  0  0  0  0
    0.0000    0.0000    0.0000 C   0  0  0  0  0  0  0  0  0  0  0  0
    0.0000    0.0000    0.0000 C   0  0  0  0  0  0  0  0  0  0  0  0
    0.0000    0.0000    0.0000 C   0  0  0  0  0  0  0  0  0  0  0  0
    0.0000    0.0000    0.0000 C   0  0  0  0  0  0  0  0  0  0  0  0
    0.0000    0.0000    0.0000 C   0  0  0  0  0  0  0  0  0  0  0  0
    0.0000    0.0000    0.0000 O   0  0  0  0  0  0  0  0  0  0  0  0
    0.0000    0.0000    0.0000 N   0  0  0  0  0  0  0  0  0  0  0  0
    0.0000    0.0000    0.0000 C   0  0  0  0  0  0  0  0  0  0  0  0
    0.0000    0.0000    0.0000 S   0  0  0  0  0  0  0  0  0  0  0  0
    0.0000    0.0000    0.0000 N   0  0  0  0  0  0  0  0  0  0  0  0
    0.0000    0.0000    0.0000 C   0  0  0  0  0  0  0  0  0  0  0  0
    0.0000    0.0000    0.0000 O   0  0  0  0  0  0  0  0  0  0  0  0
    0.0000    0.0000    0.0000 C   0  0  0  0  0  0  0  0  0  0  0  0
    0.0000    0.0000    0.0000 C   0  0  0  0  0  0  0  0  0  0  0  0
    0.0000    0.0000    0.0000 C   0  0  0  0  0  0  0  0  0  0  0  0
    0.0000    0.0000    0.0000 C   0  0  0  0  0  0  0  0  0  0  0  0
    0.0000    0.0000    0.0000 C   0  0  0  0  0  0  0  0  0  0  0  0
    0.0000    0.0000    0.0000 C   0  0  0  0  0  0  0  0  0  0  0  0
    0.0000    0.0000    0.0000 C   0  0  0  0  0  0  0  0  0  0  0  0
    0.0000    0.0000    0.0000 N   0  0  0  0  0  0  0  0  0  0  0  0
    0.0000    0.0000    0.0000 C   0  0  0  0  0  0  0  0  0  0  0  0
    0.0000    0.0000    0.0000 C   0  0  0  0  0  0  0  0  0  0  0  0
    0.0000    0.0000    0.0000 C   0  0  0  0  0  0  0  0  0  0  0  0
    0.0000    0.0000    0.0000 C   0  0  0  0  0  0  0  0  0  0  0  0
    0.0000    0.0000    0.0000 C   0  0  0  0  0  0  0  0  0  0  0  0
    0.0000    0.0000    0.0000 O   0  0  0  0  0  0  0  0  0  0  0  0
    0.0000    0.0000    0.0000 N   0  0  0  0  0  0  0  0  0  0  0  0
    0.0000    0.0000    0.0000 C   0  0  0  0  0  0  0  0  0  0  0  0
    0.0000    0.0000    0.0000 S   0  0  0  0  0  0  0  0  0  0  0  0
    0.0000    0.0000    0.0000 N   0  0  0  0  0  0  0  0  0  0  0  0
    0.0000    0.0000    0.0000 C   0  0  0  0  0  0  0  0  0  0  0  0
    0.0000    0.0000    0.0000 O   0  0  0  0  0  0  0  0  0  0  0  0
    0.0000    0.0000    0.0000 C   0  0  0  0  0  0  0  0  0  0  0  0
    0.0000    0.0000    0.0000 C   0  0  0  0  0  0  0  0  0  0  0  0
    0.0000    0.0000    0.0000 C   0  0  0  0  0  0  0  0  0  0  0  0
    0.0000    0.0000    0.0000 C   0  0  0  0  0  0  0  0  0  0  0  0
    0.0000    0.0000    0.0000 C   0  0  0  0  0  0  0  0  0  0  0  0
    0.0000    0.0000    0.0000 C   0  0  0  0  0  0  0  0  0  0  0  0
  1  2  1  0
  2  3  1  0
  3  4  1  0
  4  5  1  0
  5  6  2  0
  6  7  1  0
  7  8  2  3
  8  9  1  0
  9 10  2  0
  9 11  1  0
 11 12  1  0
 12 13  2  0
 12 14  1  0
 14 15  1  0
 15 16  2  0
  6 17  1  0
 17 18  2  0
 18 19  1  0
 19 20  2  0
 20 21  1  0
 21 22  2  0
  2 23  1  0
 23 24  1  0
 24 25  1  0
 25 26  2  0
 26 27  1  0
 27 28  2  3
 28 29  1  0
 29 30  2  0
 29 31  1  0
 31 32  1  0
 32 33  2  0
 32 34  1  0
 34 35  1  0
 35 36  2  0
 26 37  1  0
 37 38  2  0
 38 39  1  0
 39 40  2  0
 40 41  1  0
 41 42  2  0
 22  4  1  0
 15  8  1  0
 22 17  1  0
 42 24  1  0
 35 28  1  0
 42 37  1  0
M  END
>  <pIC50>  (579) 
5.16

>  <ChEMBL_ID>  (579) 
CHEMBL3786155

>  <document_journal>  (579) 
Bioorg. Med. Chem. Lett.

>  <bao_endpoint>  (579) 
BAO_0000190

>  <potential_duplicate>  (579) 
None

>  <uo_units>  (579) 
UO_0000065

>  <canonical_smiles>  (579) 
OC(Cn1cc(C=C2C(=O)NC(=S)NC2=O)c3ccccc13)Cn4cc(C=C5C(=O)NC(=S)NC5=O)c6ccccc46

>  <parent_molecule_chembl_id>  (579) 
CHEMBL3786155

>  <assay_type>  (579) 
B

>  <src_id>  (579) 
1

>  <ligand_efficiency>  (579) 
None

>  <standard_flag>  (579) 
True

>  <molecule_chembl_id>  (579) 
CHEMBL3786155

>  <target_organism>  (579) 
Homo sapiens

>  <standard_units>  (579) 
nM

>  <record_id>  (579) 
2768833

>  <document_chembl_id>  (579) 
CHEMBL3785084

>  <bao_format>  (579) 
None

>  <data_validity_description>  (579) 
None

>  <activity_id>  (579) 
16535410

>  <standard_type>  (579) 
IC50

>  <target_chembl_id>  (579) 
CHEMBL202

>  <data_validity_comment>  (579) 
None

>  <published_value>  (579) 
7

>  <document_year>  (579) 
2016

>  <target_pref_name>  (579) 
Dihydrofolate reductase

>  <assay_chembl_id>  (579) 
CHEMBL3789540

>  <standard_relation>  (579) 
=

>  <assay_description>  (579) 
Inhibition of human DHFR assessed as conversion of dihydrofolic acid to tetrahydrfolic acid by enzyme immunoassay in presence of NADPH

>  <published_relation>  (579) 
=

>  <standard_value>  (579) 
7000

>  <qudt_units>  (579) 
http://www.openphacts.org/units/Nanomolar

>  <target_tax_id>  (579) 
9606

>  <bao_label>  (579) 
None

>  <published_units>  (579) 
uM

>  <pchembl_value>  (579) 
5.16

>  <published_type>  (579) 
IC50

>  <activity_comment>  (579) 
None

$$$$

     RDKit          

 42 47  0  0  0  0  0  0  0  0999 V2000
    0.0000    0.0000    0.0000 O   0  0  0  0  0  0  0  0  0  0  0  0
    0.0000    0.0000    0.0000 C   0  0  0  0  0  0  0  0  0  0  0  0
    0.0000    0.0000    0.0000 C   0  0  0  0  0  0  0  0  0  0  0  0
    0.0000    0.0000    0.0000 N   0  0  0  0  0  0  0  0  0  0  0  0
    0.0000    0.0000    0.0000 C   0  0  0  0  0  0  0  0  0  0  0  0
    0.0000    0.0000    0.0000 C   0  0  0  0  0  0  0  0  0  0  0  0
    0.0000    0.0000    0.0000 C   0  0  0  0  0  0  0  0  0  0  0  0
    0.0000    0.0000    0.0000 C   0  0  0  0  0  0  0  0  0  0  0  0
    0.0000    0.0000    0.0000 C   0  0  0  0  0  0  0  0  0  0  0  0
    0.0000    0.0000    0.0000 O   0  0  0  0  0  0  0  0  0  0  0  0
    0.0000    0.0000    0.0000 N   0  0  0  0  0  0  0  0  0  0  0  0
    0.0000    0.0000    0.0000 C   0  0  0  0  0  0  0  0  0  0  0  0
    0.0000    0.0000    0.0000 O   0  0  0  0  0  0  0  0  0  0  0  0
    0.0000    0.0000    0.0000 N   0  0  0  0  0  0  0  0  0  0  0  0
    0.0000    0.0000    0.0000 C   0  0  0  0  0  0  0  0  0  0  0  0
    0.0000    0.0000    0.0000 O   0  0  0  0  0  0  0  0  0  0  0  0
    0.0000    0.0000    0.0000 C   0  0  0  0  0  0  0  0  0  0  0  0
    0.0000    0.0000    0.0000 C   0  0  0  0  0  0  0  0  0  0  0  0
    0.0000    0.0000    0.0000 C   0  0  0  0  0  0  0  0  0  0  0  0
    0.0000    0.0000    0.0000 C   0  0  0  0  0  0  0  0  0  0  0  0
    0.0000    0.0000    0.0000 C   0  0  0  0  0  0  0  0  0  0  0  0
    0.0000    0.0000    0.0000 C   0  0  0  0  0  0  0  0  0  0  0  0
    0.0000    0.0000    0.0000 C   0  0  0  0  0  0  0  0  0  0  0  0
    0.0000    0.0000    0.0000 N   0  0  0  0  0  0  0  0  0  0  0  0
    0.0000    0.0000    0.0000 C   0  0  0  0  0  0  0  0  0  0  0  0
    0.0000    0.0000    0.0000 C   0  0  0  0  0  0  0  0  0  0  0  0
    0.0000    0.0000    0.0000 C   0  0  0  0  0  0  0  0  0  0  0  0
    0.0000    0.0000    0.0000 C   0  0  0  0  0  0  0  0  0  0  0  0
    0.0000    0.0000    0.0000 C   0  0  0  0  0  0  0  0  0  0  0  0
    0.0000    0.0000    0.0000 O   0  0  0  0  0  0  0  0  0  0  0  0
    0.0000    0.0000    0.0000 N   0  0  0  0  0  0  0  0  0  0  0  0
    0.0000    0.0000    0.0000 C   0  0  0  0  0  0  0  0  0  0  0  0
    0.0000    0.0000    0.0000 O   0  0  0  0  0  0  0  0  0  0  0  0
    0.0000    0.0000    0.0000 N   0  0  0  0  0  0  0  0  0  0  0  0
    0.0000    0.0000    0.0000 C   0  0  0  0  0  0  0  0  0  0  0  0
    0.0000    0.0000    0.0000 O   0  0  0  0  0  0  0  0  0  0  0  0
    0.0000    0.0000    0.0000 C   0  0  0  0  0  0  0  0  0  0  0  0
    0.0000    0.0000    0.0000 C   0  0  0  0  0  0  0  0  0  0  0  0
    0.0000    0.0000    0.0000 C   0  0  0  0  0  0  0  0  0  0  0  0
    0.0000    0.0000    0.0000 C   0  0  0  0  0  0  0  0  0  0  0  0
    0.0000    0.0000    0.0000 C   0  0  0  0  0  0  0  0  0  0  0  0
    0.0000    0.0000    0.0000 C   0  0  0  0  0  0  0  0  0  0  0  0
  1  2  1  0
  2  3  1  0
  3  4  1  0
  4  5  1  0
  5  6  2  0
  6  7  1  0
  7  8  2  3
  8  9  1  0
  9 10  2  0
  9 11  1  0
 11 12  1  0
 12 13  2  0
 12 14  1  0
 14 15  1  0
 15 16  2  0
  6 17  1  0
 17 18  2  0
 18 19  1  0
 19 20  2  0
 20 21  1  0
 21 22  2  0
  2 23  1  0
 23 24  1  0
 24 25  1  0
 25 26  2  0
 26 27  1  0
 27 28  2  3
 28 29  1  0
 29 30  2  0
 29 31  1  0
 31 32  1  0
 32 33  2  0
 32 34  1  0
 34 35  1  0
 35 36  2  0
 26 37  1  0
 37 38  2  0
 38 39  1  0
 39 40  2  0
 40 41  1  0
 41 42  2  0
 22  4  1  0
 15  8  1  0
 22 17  1  0
 42 24  1  0
 35 28  1  0
 42 37  1  0
M  END
>  <pIC50>  (580) 
5.3

>  <ChEMBL_ID>  (580) 
CHEMBL3786170

>  <document_journal>  (580) 
Bioorg. Med. Chem. Lett.

>  <bao_endpoint>  (580) 
BAO_0000190

>  <potential_duplicate>  (580) 
None

>  <uo_units>  (580) 
UO_0000065

>  <canonical_smiles>  (580) 
OC(Cn1cc(C=C2C(=O)NC(=O)NC2=O)c3ccccc13)Cn4cc(C=C5C(=O)NC(=O)NC5=O)c6ccccc46

>  <parent_molecule_chembl_id>  (580) 
CHEMBL3786170

>  <assay_type>  (580) 
B

>  <src_id>  (580) 
1

>  <ligand_efficiency>  (580) 
None

>  <standard_flag>  (580) 
True

>  <molecule_chembl_id>  (580) 
CHEMBL3786170

>  <target_organism>  (580) 
Homo sapiens

>  <standard_units>  (580) 
nM

>  <record_id>  (580) 
2768832

>  <document_chembl_id>  (580) 
CHEMBL3785084

>  <bao_format>  (580) 
None

>  <data_validity_description>  (580) 
None

>  <activity_id>  (580) 
16535411

>  <standard_type>  (580) 
IC50

>  <target_chembl_id>  (580) 
CHEMBL202

>  <data_validity_comment>  (580) 
None

>  <published_value>  (580) 
5

>  <document_year>  (580) 
2016

>  <target_pref_name>  (580) 
Dihydrofolate reductase

>  <assay_chembl_id>  (580) 
CHEMBL3789540

>  <standard_relation>  (580) 
=

>  <assay_description>  (580) 
Inhibition of human DHFR assessed as conversion of dihydrofolic acid to tetrahydrfolic acid by enzyme immunoassay in presence of NADPH

>  <published_relation>  (580) 
=

>  <standard_value>  (580) 
5000

>  <qudt_units>  (580) 
http://www.openphacts.org/units/Nanomolar

>  <target_tax_id>  (580) 
9606

>  <bao_label>  (580) 
None

>  <published_units>  (580) 
uM

>  <pchembl_value>  (580) 
5.3

>  <published_type>  (580) 
IC50

>  <activity_comment>  (580) 
None

$$$$

     RDKit          

 60 69  0  0  0  0  0  0  0  0999 V2000
    0.0000    0.0000    0.0000 O   0  0  0  0  0  0  0  0  0  0  0  0
    0.0000    0.0000    0.0000 C   0  0  0  0  0  0  0  0  0  0  0  0
    0.0000    0.0000    0.0000 C   0  0  0  0  0  0  0  0  0  0  0  0
    0.0000    0.0000    0.0000 N   0  0  0  0  0  0  0  0  0  0  0  0
    0.0000    0.0000    0.0000 C   0  0  0  0  0  0  0  0  0  0  0  0
    0.0000    0.0000    0.0000 C   0  0  0  0  0  0  0  0  0  0  0  0
    0.0000    0.0000    0.0000 C   0  0  0  0  0  0  0  0  0  0  0  0
    0.0000    0.0000    0.0000 C   0  0  0  0  0  0  0  0  0  0  0  0
    0.0000    0.0000    0.0000 C   0  0  0  0  0  0  0  0  0  0  0  0
    0.0000    0.0000    0.0000 O   0  0  0  0  0  0  0  0  0  0  0  0
    0.0000    0.0000    0.0000 N   0  0  0  0  0  0  0  0  0  0  0  0
    0.0000    0.0000    0.0000 C   0  0  0  0  0  0  0  0  0  0  0  0
    0.0000    0.0000    0.0000 C   0  0  0  0  0  0  0  0  0  0  0  0
    0.0000    0.0000    0.0000 C   0  0  0  0  0  0  0  0  0  0  0  0
    0.0000    0.0000    0.0000 C   0  0  0  0  0  0  0  0  0  0  0  0
    0.0000    0.0000    0.0000 C   0  0  0  0  0  0  0  0  0  0  0  0
    0.0000    0.0000    0.0000 C   0  0  0  0  0  0  0  0  0  0  0  0
    0.0000    0.0000    0.0000 C   0  0  0  0  0  0  0  0  0  0  0  0
    0.0000    0.0000    0.0000 C   0  0  0  0  0  0  0  0  0  0  0  0
    0.0000    0.0000    0.0000 Cl  0  0  0  0  0  0  0  0  0  0  0  0
    0.0000    0.0000    0.0000 C   0  0  0  0  0  0  0  0  0  0  0  0
    0.0000    0.0000    0.0000 C   0  0  0  0  0  0  0  0  0  0  0  0
    0.0000    0.0000    0.0000 C   0  0  0  0  0  0  0  0  0  0  0  0
    0.0000    0.0000    0.0000 C   0  0  0  0  0  0  0  0  0  0  0  0
    0.0000    0.0000    0.0000 Cl  0  0  0  0  0  0  0  0  0  0  0  0
    0.0000    0.0000    0.0000 C   0  0  0  0  0  0  0  0  0  0  0  0
    0.0000    0.0000    0.0000 C   0  0  0  0  0  0  0  0  0  0  0  0
    0.0000    0.0000    0.0000 C   0  0  0  0  0  0  0  0  0  0  0  0
    0.0000    0.0000    0.0000 C   0  0  0  0  0  0  0  0  0  0  0  0
    0.0000    0.0000    0.0000 C   0  0  0  0  0  0  0  0  0  0  0  0
    0.0000    0.0000    0.0000 C   0  0  0  0  0  0  0  0  0  0  0  0
    0.0000    0.0000    0.0000 C   0  0  0  0  0  0  0  0  0  0  0  0
    0.0000    0.0000    0.0000 N   0  0  0  0  0  0  0  0  0  0  0  0
    0.0000    0.0000    0.0000 C   0  0  0  0  0  0  0  0  0  0  0  0
    0.0000    0.0000    0.0000 C   0  0  0  0  0  0  0  0  0  0  0  0
    0.0000    0.0000    0.0000 C   0  0  0  0  0  0  0  0  0  0  0  0
    0.0000    0.0000    0.0000 C   0  0  0  0  0  0  0  0  0  0  0  0
    0.0000    0.0000    0.0000 C   0  0  0  0  0  0  0  0  0  0  0  0
    0.0000    0.0000    0.0000 O   0  0  0  0  0  0  0  0  0  0  0  0
    0.0000    0.0000    0.0000 N   0  0  0  0  0  0  0  0  0  0  0  0
    0.0000    0.0000    0.0000 C   0  0  0  0  0  0  0  0  0  0  0  0
    0.0000    0.0000    0.0000 C   0  0  0  0  0  0  0  0  0  0  0  0
    0.0000    0.0000    0.0000 C   0  0  0  0  0  0  0  0  0  0  0  0
    0.0000    0.0000    0.0000 C   0  0  0  0  0  0  0  0  0  0  0  0
    0.0000    0.0000    0.0000 C   0  0  0  0  0  0  0  0  0  0  0  0
    0.0000    0.0000    0.0000 C   0  0  0  0  0  0  0  0  0  0  0  0
    0.0000    0.0000    0.0000 C   0  0  0  0  0  0  0  0  0  0  0  0
    0.0000    0.0000    0.0000 C   0  0  0  0  0  0  0  0  0  0  0  0
    0.0000    0.0000    0.0000 Cl  0  0  0  0  0  0  0  0  0  0  0  0
    0.0000    0.0000    0.0000 C   0  0  0  0  0  0  0  0  0  0  0  0
    0.0000    0.0000    0.0000 C   0  0  0  0  0  0  0  0  0  0  0  0
    0.0000    0.0000    0.0000 C   0  0  0  0  0  0  0  0  0  0  0  0
    0.0000    0.0000    0.0000 C   0  0  0  0  0  0  0  0  0  0  0  0
    0.0000    0.0000    0.0000 Cl  0  0  0  0  0  0  0  0  0  0  0  0
    0.0000    0.0000    0.0000 C   0  0  0  0  0  0  0  0  0  0  0  0
    0.0000    0.0000    0.0000 C   0  0  0  0  0  0  0  0  0  0  0  0
    0.0000    0.0000    0.0000 C   0  0  0  0  0  0  0  0  0  0  0  0
    0.0000    0.0000    0.0000 C   0  0  0  0  0  0  0  0  0  0  0  0
    0.0000    0.0000    0.0000 C   0  0  0  0  0  0  0  0  0  0  0  0
    0.0000    0.0000    0.0000 C   0  0  0  0  0  0  0  0  0  0  0  0
  1  2  1  0
  2  3  1  0
  3  4  1  0
  4  5  1  0
  5  6  2  0
  6  7  1  0
  7  8  2  0
  8  9  1  0
  9 10  2  0
  9 11  1  0
 11 12  1  0
 12 13  2  0
 13 14  1  0
 14 15  2  0
 15 16  1  0
 16 17  2  0
 11 18  1  0
 18 19  2  0
 19 20  1  0
 19 21  1  0
 21 22  2  0
 22 23  1  0
 23 24  2  0
 24 25  1  0
  6 26  1  0
 26 27  2  0
 27 28  1  0
 28 29  2  0
 29 30  1  0
 30 31  2  0
  2 32  1  0
 32 33  1  0
 33 34  1  0
 34 35  2  0
 35 36  1  0
 36 37  2  0
 37 38  1  0
 38 39  2  0
 38 40  1  0
 40 41  1  0
 41 42  2  0
 42 43  1  0
 43 44  2  0
 44 45  1  0
 45 46  2  0
 40 47  1  0
 47 48  2  0
 48 49  1  0
 48 50  1  0
 50 51  2  0
 51 52  1  0
 52 53  2  0
 53 54  1  0
 35 55  1  0
 55 56  2  0
 56 57  1  0
 57 58  2  0
 58 59  1  0
 59 60  2  0
 31  4  1  0
  8 17  1  0
 17 12  1  0
 24 18  1  0
 31 26  1  0
 60 33  1  0
 37 46  1  0
 46 41  1  0
 53 47  1  0
 60 55  1  0
M  END
>  <pIC50>  (581) 
5.1

>  <ChEMBL_ID>  (581) 
CHEMBL3785863

>  <document_journal>  (581) 
Bioorg. Med. Chem. Lett.

>  <bao_endpoint>  (581) 
BAO_0000190

>  <potential_duplicate>  (581) 
None

>  <uo_units>  (581) 
UO_0000065

>  <canonical_smiles>  (581) 
OC(Cn1cc(\C=C\2/C(=O)N(c3ccccc23)c4c(Cl)cccc4Cl)c5ccccc15)Cn6cc(\C=C\7/C(=O)N(c8ccccc78)c9c(Cl)cccc9Cl)c%10ccccc6%10

>  <parent_molecule_chembl_id>  (581) 
CHEMBL3785863

>  <assay_type>  (581) 
B

>  <src_id>  (581) 
1

>  <ligand_efficiency>  (581) 
None

>  <standard_flag>  (581) 
True

>  <molecule_chembl_id>  (581) 
CHEMBL3785863

>  <target_organism>  (581) 
Homo sapiens

>  <standard_units>  (581) 
nM

>  <record_id>  (581) 
2768831

>  <document_chembl_id>  (581) 
CHEMBL3785084

>  <bao_format>  (581) 
None

>  <data_validity_description>  (581) 
None

>  <activity_id>  (581) 
16535412

>  <standard_type>  (581) 
IC50

>  <target_chembl_id>  (581) 
CHEMBL202

>  <data_validity_comment>  (581) 
None

>  <published_value>  (581) 
8

>  <document_year>  (581) 
2016

>  <target_pref_name>  (581) 
Dihydrofolate reductase

>  <assay_chembl_id>  (581) 
CHEMBL3789540

>  <standard_relation>  (581) 
=

>  <assay_description>  (581) 
Inhibition of human DHFR assessed as conversion of dihydrofolic acid to tetrahydrfolic acid by enzyme immunoassay in presence of NADPH

>  <published_relation>  (581) 
=

>  <standard_value>  (581) 
8000

>  <qudt_units>  (581) 
http://www.openphacts.org/units/Nanomolar

>  <target_tax_id>  (581) 
9606

>  <bao_label>  (581) 
None

>  <published_units>  (581) 
uM

>  <pchembl_value>  (581) 
5.1

>  <published_type>  (581) 
IC50

>  <activity_comment>  (581) 
None

$$$$

     RDKit          

 46 53  0  0  0  0  0  0  0  0999 V2000
    0.0000    0.0000    0.0000 N   0  0  0  0  0  0  0  0  0  0  0  0
    0.0000    0.0000    0.0000 C   0  0  0  0  0  0  0  0  0  0  0  0
    0.0000    0.0000    0.0000 C   0  0  0  0  0  0  0  0  0  0  0  0
    0.0000    0.0000    0.0000 C   0  0  0  0  0  0  0  0  0  0  0  0
    0.0000    0.0000    0.0000 C   0  0  0  0  0  0  0  0  0  0  0  0
    0.0000    0.0000    0.0000 N   0  0  0  0  0  0  0  0  0  0  0  0
    0.0000    0.0000    0.0000 C   0  0  0  0  0  0  0  0  0  0  0  0
    0.0000    0.0000    0.0000 O   0  0  0  0  0  0  0  0  0  0  0  0
    0.0000    0.0000    0.0000 C   0  0  0  0  0  0  0  0  0  0  0  0
    0.0000    0.0000    0.0000 C   0  0  0  0  0  0  0  0  0  0  0  0
    0.0000    0.0000    0.0000 C   0  0  0  0  0  0  0  0  0  0  0  0
    0.0000    0.0000    0.0000 C   0  0  0  0  0  0  0  0  0  0  0  0
    0.0000    0.0000    0.0000 N   0  0  0  0  0  0  0  0  0  0  0  0
    0.0000    0.0000    0.0000 C   0  0  0  0  0  0  0  0  0  0  0  0
    0.0000    0.0000    0.0000 C   0  0  0  0  0  0  0  0  0  0  0  0
    0.0000    0.0000    0.0000 O   0  0  0  0  0  0  0  0  0  0  0  0
    0.0000    0.0000    0.0000 C   0  0  0  0  0  0  0  0  0  0  0  0
    0.0000    0.0000    0.0000 N   0  0  0  0  0  0  0  0  0  0  0  0
    0.0000    0.0000    0.0000 C   0  0  0  0  0  0  0  0  0  0  0  0
    0.0000    0.0000    0.0000 C   0  0  0  0  0  0  0  0  0  0  0  0
    0.0000    0.0000    0.0000 C   0  0  0  0  0  0  0  0  0  0  0  0
    0.0000    0.0000    0.0000 C   0  0  0  0  0  0  0  0  0  0  0  0
    0.0000    0.0000    0.0000 C   0  0  0  0  0  0  0  0  0  0  0  0
    0.0000    0.0000    0.0000 O   0  0  0  0  0  0  0  0  0  0  0  0
    0.0000    0.0000    0.0000 N   0  0  0  0  0  0  0  0  0  0  0  0
    0.0000    0.0000    0.0000 C   0  0  0  0  0  0  0  0  0  0  0  0
    0.0000    0.0000    0.0000 C   0  0  0  0  0  0  0  0  0  0  0  0
    0.0000    0.0000    0.0000 C   0  0  0  0  0  0  0  0  0  0  0  0
    0.0000    0.0000    0.0000 C   0  0  0  0  0  0  0  0  0  0  0  0
    0.0000    0.0000    0.0000 N   0  0  0  0  0  0  0  0  0  0  0  0
    0.0000    0.0000    0.0000 C   0  0  0  0  0  0  0  0  0  0  0  0
    0.0000    0.0000    0.0000 C   0  0  0  0  0  0  0  0  0  0  0  0
    0.0000    0.0000    0.0000 C   0  0  0  0  0  0  0  0  0  0  0  0
    0.0000    0.0000    0.0000 C   0  0  0  0  0  0  0  0  0  0  0  0
    0.0000    0.0000    0.0000 C   0  0  0  0  0  0  0  0  0  0  0  0
    0.0000    0.0000    0.0000 C   0  0  0  0  0  0  0  0  0  0  0  0
    0.0000    0.0000    0.0000 C   0  0  0  0  0  0  0  0  0  0  0  0
    0.0000    0.0000    0.0000 C   0  0  0  0  0  0  0  0  0  0  0  0
    0.0000    0.0000    0.0000 C   0  0  0  0  0  0  0  0  0  0  0  0
    0.0000    0.0000    0.0000 C   0  0  0  0  0  0  0  0  0  0  0  0
    0.0000    0.0000    0.0000 C   0  0  0  0  0  0  0  0  0  0  0  0
    0.0000    0.0000    0.0000 C   0  0  0  0  0  0  0  0  0  0  0  0
    0.0000    0.0000    0.0000 C   0  0  0  0  0  0  0  0  0  0  0  0
    0.0000    0.0000    0.0000 C   0  0  0  0  0  0  0  0  0  0  0  0
    0.0000    0.0000    0.0000 C   0  0  0  0  0  0  0  0  0  0  0  0
    0.0000    0.0000    0.0000 C   0  0  0  0  0  0  0  0  0  0  0  0
  1  2  1  0
  2  3  2  0
  3  4  1  0
  4  5  2  0
  5  6  1  0
  6  7  1  0
  7  8  2  0
  7  9  1  0
  9 10  2  0
 10 11  1  0
 11 12  2  0
 12 13  1  0
 13 14  1  0
 14 15  1  0
 15 16  1  0
 15 17  1  0
 17 18  1  0
 18 19  1  0
 19 20  2  0
 20 21  1  0
 21 22  2  0
 22 23  1  0
 23 24  2  0
 23 25  1  0
 25 26  1  0
 26 27  2  0
 27 28  1  0
 28 29  2  0
 29 30  1  0
 29 31  1  0
 31 32  2  0
 20 33  1  0
 33 34  2  0
 34 35  1  0
 35 36  2  0
 36 37  1  0
 37 38  2  0
 13 39  1  0
 39 40  2  0
 40 41  1  0
 41 42  2  0
 42 43  1  0
 43 44  2  0
  9 45  1  0
 45 46  2  0
 46  2  1  0
 45  5  1  0
 44 11  1  0
 38 18  1  0
 22 32  1  0
 32 26  1  0
 38 33  1  0
 44 39  1  0
M  END
>  <pIC50>  (582) 
6.52

>  <ChEMBL_ID>  (582) 
CHEMBL3786413

>  <document_journal>  (582) 
Bioorg. Med. Chem. Lett.

>  <bao_endpoint>  (582) 
BAO_0000190

>  <potential_duplicate>  (582) 
None

>  <uo_units>  (582) 
UO_0000065

>  <canonical_smiles>  (582) 
Nc1ccc2NC(=O)\C(=C/c3cn(CC(O)Cn4cc(\C=C\5/C(=O)Nc6ccc(N)cc56)c7ccccc47)c8ccccc38)\c2c1

>  <parent_molecule_chembl_id>  (582) 
CHEMBL3786413

>  <assay_type>  (582) 
B

>  <src_id>  (582) 
1

>  <ligand_efficiency>  (582) 
None

>  <standard_flag>  (582) 
True

>  <molecule_chembl_id>  (582) 
CHEMBL3786413

>  <target_organism>  (582) 
Homo sapiens

>  <standard_units>  (582) 
nM

>  <record_id>  (582) 
2768830

>  <document_chembl_id>  (582) 
CHEMBL3785084

>  <bao_format>  (582) 
None

>  <data_validity_description>  (582) 
None

>  <activity_id>  (582) 
16535413

>  <standard_type>  (582) 
IC50

>  <target_chembl_id>  (582) 
CHEMBL202

>  <data_validity_comment>  (582) 
None

>  <published_value>  (582) 
0.3

>  <document_year>  (582) 
2016

>  <target_pref_name>  (582) 
Dihydrofolate reductase

>  <assay_chembl_id>  (582) 
CHEMBL3789540

>  <standard_relation>  (582) 
=

>  <assay_description>  (582) 
Inhibition of human DHFR assessed as conversion of dihydrofolic acid to tetrahydrfolic acid by enzyme immunoassay in presence of NADPH

>  <published_relation>  (582) 
=

>  <standard_value>  (582) 
300

>  <qudt_units>  (582) 
http://www.openphacts.org/units/Nanomolar

>  <target_tax_id>  (582) 
9606

>  <bao_label>  (582) 
None

>  <published_units>  (582) 
uM

>  <pchembl_value>  (582) 
6.52

>  <published_type>  (582) 
IC50

>  <activity_comment>  (582) 
None

$$$$

     RDKit          

 50 57  0  0  0  0  0  0  0  0999 V2000
    0.0000    0.0000    0.0000 O   0  0  0  0  0  0  0  0  0  0  0  0
    0.0000    0.0000    0.0000 C   0  0  0  0  0  0  0  0  0  0  0  0
    0.0000    0.0000    0.0000 C   0  0  0  0  0  0  0  0  0  0  0  0
    0.0000    0.0000    0.0000 N   0  0  0  0  0  0  0  0  0  0  0  0
    0.0000    0.0000    0.0000 C   0  0  0  0  0  0  0  0  0  0  0  0
    0.0000    0.0000    0.0000 C   0  0  0  0  0  0  0  0  0  0  0  0
    0.0000    0.0000    0.0000 C   0  0  0  0  0  0  0  0  0  0  0  0
    0.0000    0.0000    0.0000 C   0  0  0  0  0  0  0  0  0  0  0  0
    0.0000    0.0000    0.0000 C   0  0  0  0  0  0  0  0  0  0  0  0
    0.0000    0.0000    0.0000 O   0  0  0  0  0  0  0  0  0  0  0  0
    0.0000    0.0000    0.0000 N   0  0  0  0  0  0  0  0  0  0  0  0
    0.0000    0.0000    0.0000 C   0  0  0  0  0  0  0  0  0  0  0  0
    0.0000    0.0000    0.0000 C   0  0  0  0  0  0  0  0  0  0  0  0
    0.0000    0.0000    0.0000 C   0  0  0  0  0  0  0  0  0  0  0  0
    0.0000    0.0000    0.0000 C   0  0  0  0  0  0  0  0  0  0  0  0
    0.0000    0.0000    0.0000 C   0  0  0  0  0  0  0  0  0  0  0  0
    0.0000    0.0000    0.0000 C   0  0  0  0  0  0  0  0  0  0  0  0
    0.0000    0.0000    0.0000 N   0  0  0  0  0  0  0  0  0  0  0  0
    0.0000    0.0000    0.0000 O   0  0  0  0  0  0  0  0  0  0  0  0
    0.0000    0.0000    0.0000 O   0  0  0  0  0  0  0  0  0  0  0  0
    0.0000    0.0000    0.0000 C   0  0  0  0  0  0  0  0  0  0  0  0
    0.0000    0.0000    0.0000 C   0  0  0  0  0  0  0  0  0  0  0  0
    0.0000    0.0000    0.0000 C   0  0  0  0  0  0  0  0  0  0  0  0
    0.0000    0.0000    0.0000 C   0  0  0  0  0  0  0  0  0  0  0  0
    0.0000    0.0000    0.0000 C   0  0  0  0  0  0  0  0  0  0  0  0
    0.0000    0.0000    0.0000 C   0  0  0  0  0  0  0  0  0  0  0  0
    0.0000    0.0000    0.0000 C   0  0  0  0  0  0  0  0  0  0  0  0
    0.0000    0.0000    0.0000 N   0  0  0  0  0  0  0  0  0  0  0  0
    0.0000    0.0000    0.0000 C   0  0  0  0  0  0  0  0  0  0  0  0
    0.0000    0.0000    0.0000 C   0  0  0  0  0  0  0  0  0  0  0  0
    0.0000    0.0000    0.0000 C   0  0  0  0  0  0  0  0  0  0  0  0
    0.0000    0.0000    0.0000 C   0  0  0  0  0  0  0  0  0  0  0  0
    0.0000    0.0000    0.0000 C   0  0  0  0  0  0  0  0  0  0  0  0
    0.0000    0.0000    0.0000 O   0  0  0  0  0  0  0  0  0  0  0  0
    0.0000    0.0000    0.0000 N   0  0  0  0  0  0  0  0  0  0  0  0
    0.0000    0.0000    0.0000 C   0  0  0  0  0  0  0  0  0  0  0  0
    0.0000    0.0000    0.0000 C   0  0  0  0  0  0  0  0  0  0  0  0
    0.0000    0.0000    0.0000 C   0  0  0  0  0  0  0  0  0  0  0  0
    0.0000    0.0000    0.0000 C   0  0  0  0  0  0  0  0  0  0  0  0
    0.0000    0.0000    0.0000 C   0  0  0  0  0  0  0  0  0  0  0  0
    0.0000    0.0000    0.0000 C   0  0  0  0  0  0  0  0  0  0  0  0
    0.0000    0.0000    0.0000 N   0  0  0  0  0  0  0  0  0  0  0  0
    0.0000    0.0000    0.0000 O   0  0  0  0  0  0  0  0  0  0  0  0
    0.0000    0.0000    0.0000 O   0  0  0  0  0  0  0  0  0  0  0  0
    0.0000    0.0000    0.0000 C   0  0  0  0  0  0  0  0  0  0  0  0
    0.0000    0.0000    0.0000 C   0  0  0  0  0  0  0  0  0  0  0  0
    0.0000    0.0000    0.0000 C   0  0  0  0  0  0  0  0  0  0  0  0
    0.0000    0.0000    0.0000 C   0  0  0  0  0  0  0  0  0  0  0  0
    0.0000    0.0000    0.0000 C   0  0  0  0  0  0  0  0  0  0  0  0
    0.0000    0.0000    0.0000 C   0  0  0  0  0  0  0  0  0  0  0  0
  1  2  1  0
  2  3  1  0
  3  4  1  0
  4  5  1  0
  5  6  2  0
  6  7  1  0
  7  8  2  0
  8  9  1  0
  9 10  2  0
  9 11  1  0
 11 12  1  0
 12 13  2  0
 13 14  1  0
 14 15  2  0
 15 16  1  0
 16 17  2  0
 15 18  1  0
 18 19  2  0
 18 20  1  0
  6 21  1  0
 21 22  2  0
 22 23  1  0
 23 24  2  0
 24 25  1  0
 25 26  2  0
  2 27  1  0
 27 28  1  0
 28 29  1  0
 29 30  2  0
 30 31  1  0
 31 32  2  0
 32 33  1  0
 33 34  2  0
 33 35  1  0
 35 36  1  0
 36 37  2  0
 37 38  1  0
 38 39  2  0
 39 40  1  0
 40 41  2  0
 39 42  1  0
 42 43  2  0
 42 44  1  0
 30 45  1  0
 45 46  2  0
 46 47  1  0
 47 48  2  0
 48 49  1  0
 49 50  2  0
 26  4  1  0
  8 17  1  0
 17 12  1  0
 26 21  1  0
 50 28  1  0
 32 41  1  0
 41 36  1  0
 50 45  1  0
M  CHG  4  18   1  20  -1  42   1  44  -1
M  END
>  <pIC50>  (583) 
6.16

>  <ChEMBL_ID>  (583) 
CHEMBL3785463

>  <document_journal>  (583) 
Bioorg. Med. Chem. Lett.

>  <bao_endpoint>  (583) 
BAO_0000190

>  <potential_duplicate>  (583) 
None

>  <uo_units>  (583) 
UO_0000065

>  <canonical_smiles>  (583) 
OC(Cn1cc(\C=C\2/C(=O)Nc3ccc(cc23)[N+](=O)[O-])c4ccccc14)Cn5cc(\C=C\6/C(=O)Nc7ccc(cc67)[N+](=O)[O-])c8ccccc58

>  <parent_molecule_chembl_id>  (583) 
CHEMBL3785463

>  <assay_type>  (583) 
B

>  <src_id>  (583) 
1

>  <ligand_efficiency>  (583) 
None

>  <standard_flag>  (583) 
True

>  <molecule_chembl_id>  (583) 
CHEMBL3785463

>  <target_organism>  (583) 
Homo sapiens

>  <standard_units>  (583) 
nM

>  <record_id>  (583) 
2768829

>  <document_chembl_id>  (583) 
CHEMBL3785084

>  <bao_format>  (583) 
None

>  <data_validity_description>  (583) 
None

>  <activity_id>  (583) 
16535414

>  <standard_type>  (583) 
IC50

>  <target_chembl_id>  (583) 
CHEMBL202

>  <data_validity_comment>  (583) 
None

>  <published_value>  (583) 
0.7

>  <document_year>  (583) 
2016

>  <target_pref_name>  (583) 
Dihydrofolate reductase

>  <assay_chembl_id>  (583) 
CHEMBL3789540

>  <standard_relation>  (583) 
=

>  <assay_description>  (583) 
Inhibition of human DHFR assessed as conversion of dihydrofolic acid to tetrahydrfolic acid by enzyme immunoassay in presence of NADPH

>  <published_relation>  (583) 
=

>  <standard_value>  (583) 
700

>  <qudt_units>  (583) 
http://www.openphacts.org/units/Nanomolar

>  <target_tax_id>  (583) 
9606

>  <bao_label>  (583) 
None

>  <published_units>  (583) 
uM

>  <pchembl_value>  (583) 
6.16

>  <published_type>  (583) 
IC50

>  <activity_comment>  (583) 
None

$$$$

     RDKit          

 44 51  0  0  0  0  0  0  0  0999 V2000
    0.0000    0.0000    0.0000 O   0  0  0  0  0  0  0  0  0  0  0  0
    0.0000    0.0000    0.0000 C   0  0  0  0  0  0  0  0  0  0  0  0
    0.0000    0.0000    0.0000 C   0  0  0  0  0  0  0  0  0  0  0  0
    0.0000    0.0000    0.0000 N   0  0  0  0  0  0  0  0  0  0  0  0
    0.0000    0.0000    0.0000 C   0  0  0  0  0  0  0  0  0  0  0  0
    0.0000    0.0000    0.0000 C   0  0  0  0  0  0  0  0  0  0  0  0
    0.0000    0.0000    0.0000 C   0  0  0  0  0  0  0  0  0  0  0  0
    0.0000    0.0000    0.0000 C   0  0  0  0  0  0  0  0  0  0  0  0
    0.0000    0.0000    0.0000 C   0  0  0  0  0  0  0  0  0  0  0  0
    0.0000    0.0000    0.0000 O   0  0  0  0  0  0  0  0  0  0  0  0
    0.0000    0.0000    0.0000 N   0  0  0  0  0  0  0  0  0  0  0  0
    0.0000    0.0000    0.0000 C   0  0  0  0  0  0  0  0  0  0  0  0
    0.0000    0.0000    0.0000 C   0  0  0  0  0  0  0  0  0  0  0  0
    0.0000    0.0000    0.0000 C   0  0  0  0  0  0  0  0  0  0  0  0
    0.0000    0.0000    0.0000 C   0  0  0  0  0  0  0  0  0  0  0  0
    0.0000    0.0000    0.0000 C   0  0  0  0  0  0  0  0  0  0  0  0
    0.0000    0.0000    0.0000 C   0  0  0  0  0  0  0  0  0  0  0  0
    0.0000    0.0000    0.0000 C   0  0  0  0  0  0  0  0  0  0  0  0
    0.0000    0.0000    0.0000 C   0  0  0  0  0  0  0  0  0  0  0  0
    0.0000    0.0000    0.0000 C   0  0  0  0  0  0  0  0  0  0  0  0
    0.0000    0.0000    0.0000 C   0  0  0  0  0  0  0  0  0  0  0  0
    0.0000    0.0000    0.0000 C   0  0  0  0  0  0  0  0  0  0  0  0
    0.0000    0.0000    0.0000 C   0  0  0  0  0  0  0  0  0  0  0  0
    0.0000    0.0000    0.0000 C   0  0  0  0  0  0  0  0  0  0  0  0
    0.0000    0.0000    0.0000 N   0  0  0  0  0  0  0  0  0  0  0  0
    0.0000    0.0000    0.0000 C   0  0  0  0  0  0  0  0  0  0  0  0
    0.0000    0.0000    0.0000 C   0  0  0  0  0  0  0  0  0  0  0  0
    0.0000    0.0000    0.0000 C   0  0  0  0  0  0  0  0  0  0  0  0
    0.0000    0.0000    0.0000 C   0  0  0  0  0  0  0  0  0  0  0  0
    0.0000    0.0000    0.0000 C   0  0  0  0  0  0  0  0  0  0  0  0
    0.0000    0.0000    0.0000 O   0  0  0  0  0  0  0  0  0  0  0  0
    0.0000    0.0000    0.0000 N   0  0  0  0  0  0  0  0  0  0  0  0
    0.0000    0.0000    0.0000 C   0  0  0  0  0  0  0  0  0  0  0  0
    0.0000    0.0000    0.0000 C   0  0  0  0  0  0  0  0  0  0  0  0
    0.0000    0.0000    0.0000 C   0  0  0  0  0  0  0  0  0  0  0  0
    0.0000    0.0000    0.0000 C   0  0  0  0  0  0  0  0  0  0  0  0
    0.0000    0.0000    0.0000 C   0  0  0  0  0  0  0  0  0  0  0  0
    0.0000    0.0000    0.0000 C   0  0  0  0  0  0  0  0  0  0  0  0
    0.0000    0.0000    0.0000 C   0  0  0  0  0  0  0  0  0  0  0  0
    0.0000    0.0000    0.0000 C   0  0  0  0  0  0  0  0  0  0  0  0
    0.0000    0.0000    0.0000 C   0  0  0  0  0  0  0  0  0  0  0  0
    0.0000    0.0000    0.0000 C   0  0  0  0  0  0  0  0  0  0  0  0
    0.0000    0.0000    0.0000 C   0  0  0  0  0  0  0  0  0  0  0  0
    0.0000    0.0000    0.0000 C   0  0  0  0  0  0  0  0  0  0  0  0
  1  2  1  0
  2  3  1  0
  3  4  1  0
  4  5  1  0
  5  6  2  0
  6  7  1  0
  7  8  2  0
  8  9  1  0
  9 10  2  0
  9 11  1  0
 11 12  1  0
 12 13  2  0
 13 14  1  0
 14 15  2  0
 15 16  1  0
 16 17  2  0
  6 18  1  0
 18 19  2  0
 19 20  1  0
 20 21  2  0
 21 22  1  0
 22 23  2  0
  2 24  1  0
 24 25  1  0
 25 26  1  0
 26 27  2  0
 27 28  1  0
 28 29  2  0
 29 30  1  0
 30 31  2  0
 30 32  1  0
 32 33  1  0
 33 34  2  0
 34 35  1  0
 35 36  2  0
 36 37  1  0
 37 38  2  0
 27 39  1  0
 39 40  2  0
 40 41  1  0
 41 42  2  0
 42 43  1  0
 43 44  2  0
 23  4  1  0
  8 17  1  0
 17 12  1  0
 23 18  1  0
 44 25  1  0
 29 38  1  0
 38 33  1  0
 44 39  1  0
M  END
>  <pIC50>  (584) 
7.52

>  <ChEMBL_ID>  (584) 
CHEMBL3787137

>  <document_journal>  (584) 
Bioorg. Med. Chem. Lett.

>  <bao_endpoint>  (584) 
BAO_0000190

>  <potential_duplicate>  (584) 
None

>  <uo_units>  (584) 
UO_0000065

>  <canonical_smiles>  (584) 
OC(Cn1cc(\C=C\2/C(=O)Nc3ccccc23)c4ccccc14)Cn5cc(\C=C\6/C(=O)Nc7ccccc67)c8ccccc58

>  <parent_molecule_chembl_id>  (584) 
CHEMBL3787137

>  <assay_type>  (584) 
B

>  <src_id>  (584) 
1

>  <ligand_efficiency>  (584) 
None

>  <standard_flag>  (584) 
True

>  <molecule_chembl_id>  (584) 
CHEMBL3787137

>  <target_organism>  (584) 
Homo sapiens

>  <standard_units>  (584) 
nM

>  <record_id>  (584) 
2768828

>  <document_chembl_id>  (584) 
CHEMBL3785084

>  <bao_format>  (584) 
None

>  <data_validity_description>  (584) 
None

>  <activity_id>  (584) 
16535415

>  <standard_type>  (584) 
IC50

>  <target_chembl_id>  (584) 
CHEMBL202

>  <data_validity_comment>  (584) 
None

>  <published_value>  (584) 
0.03

>  <document_year>  (584) 
2016

>  <target_pref_name>  (584) 
Dihydrofolate reductase

>  <assay_chembl_id>  (584) 
CHEMBL3789540

>  <standard_relation>  (584) 
=

>  <assay_description>  (584) 
Inhibition of human DHFR assessed as conversion of dihydrofolic acid to tetrahydrfolic acid by enzyme immunoassay in presence of NADPH

>  <published_relation>  (584) 
=

>  <standard_value>  (584) 
30

>  <qudt_units>  (584) 
http://www.openphacts.org/units/Nanomolar

>  <target_tax_id>  (584) 
9606

>  <bao_label>  (584) 
None

>  <published_units>  (584) 
uM

>  <pchembl_value>  (584) 
7.52

>  <published_type>  (584) 
IC50

>  <activity_comment>  (584) 
None

$$$$
