
     RDKit          

 21 24  0  0  0  0  0  0  0  0999 V2000
    0.0000    0.0000    0.0000 C   0  0  0  0  0  0  0  0  0  0  0  0
    0.0000    0.0000    0.0000 N   0  0  0  0  0  0  0  0  0  0  0  0
    0.0000    0.0000    0.0000 C   0  0  0  0  0  0  0  0  0  0  0  0
    0.0000    0.0000    0.0000 C   0  0  0  0  0  0  0  0  0  0  0  0
    0.0000    0.0000    0.0000 C   0  0  0  0  0  0  0  0  0  0  0  0
    0.0000    0.0000    0.0000 C   0  0  0  0  0  0  0  0  0  0  0  0
    0.0000    0.0000    0.0000 N   0  0  0  0  0  0  0  0  0  0  0  0
    0.0000    0.0000    0.0000 O   0  0  0  0  0  0  0  0  0  0  0  0
    0.0000    0.0000    0.0000 C   0  0  0  0  0  0  0  0  0  0  0  0
    0.0000    0.0000    0.0000 C   0  0  0  0  0  0  0  0  0  0  0  0
    0.0000    0.0000    0.0000 C   0  0  0  0  0  0  0  0  0  0  0  0
    0.0000    0.0000    0.0000 C   0  0  0  0  0  0  0  0  0  0  0  0
    0.0000    0.0000    0.0000 C   0  0  0  0  0  0  0  0  0  0  0  0
    0.0000    0.0000    0.0000 C   0  0  0  0  0  0  0  0  0  0  0  0
    0.0000    0.0000    0.0000 C   0  0  0  0  0  0  0  0  0  0  0  0
    0.0000    0.0000    0.0000 C   0  0  0  0  0  0  0  0  0  0  0  0
    0.0000    0.0000    0.0000 C   0  0  0  0  0  0  0  0  0  0  0  0
    0.0000    0.0000    0.0000 C   0  0  0  0  0  0  0  0  0  0  0  0
    0.0000    0.0000    0.0000 C   0  0  0  0  0  0  0  0  0  0  0  0
    0.0000    0.0000    0.0000 C   0  0  0  0  0  0  0  0  0  0  0  0
    0.0000    0.0000    0.0000 C   0  0  0  0  0  0  0  0  0  0  0  0
  1  2  1  0
  2  3  1  0
  3  4  1  0
  4  5  1  0
  5  6  1  0
  6  7  1  0
  7  8  1  0
  7  9  1  0
  9 10  2  0
 10 11  1  0
 11 12  2  0
 12 13  1  0
 13 14  2  0
 14 15  1  0
 15 16  1  0
 16 17  2  0
 17 18  1  0
 18 19  2  0
 19 20  1  0
 20 21  2  0
  8  4  1  0
 21  6  1  0
 14  9  1  0
 21 16  1  0
M  END
>  <pIC50>  (1) 
6.36

>  <ChEMBL_ID>  (1) 
CHEMBL81485

>  <document_journal>  (1) 
Bioorg. Med. Chem. Lett.

>  <bao_endpoint>  (1) 
BAO_0000190

>  <potential_duplicate>  (1) 
False

>  <uo_units>  (1) 
UO_0000065

>  <canonical_smiles>  (1) 
CNCC1CC2N(O1)c3ccccc3Cc4ccccc24

>  <parent_molecule_chembl_id>  (1) 
CHEMBL81485

>  <assay_type>  (1) 
B

>  <src_id>  (1) 
1

>  <ligand_efficiency>  (1) 
{u'le': u'0.41', u'bei': u'22.69', u'sei': u'25.96', u'lle': u'3.24'}

>  <standard_flag>  (1) 
True

>  <molecule_chembl_id>  (1) 
CHEMBL81485

>  <target_organism>  (1) 
Homo sapiens

>  <standard_units>  (1) 
nM

>  <record_id>  (1) 
147845

>  <document_chembl_id>  (1) 
CHEMBL1135380

>  <bao_format>  (1) 
BAO_0000357

>  <data_validity_description>  (1) 
None

>  <activity_id>  (1) 
369923

>  <standard_type>  (1) 
IC50

>  <target_chembl_id>  (1) 
CHEMBL1867

>  <data_validity_comment>  (1) 
None

>  <published_value>  (1) 
6.36

>  <document_year>  (1) 
2002

>  <target_pref_name>  (1) 
Alpha-2a adrenergic receptor

>  <assay_chembl_id>  (1) 
CHEMBL640498

>  <standard_relation>  (1) 
=

>  <assay_description>  (1) 
Binding affinity for human cloned Alpha-2A adrenergic receptor

>  <published_relation>  (1) 
=

>  <standard_value>  (1) 
436.52

>  <qudt_units>  (1) 
http://www.openphacts.org/units/Nanomolar

>  <target_tax_id>  (1) 
9606

>  <bao_label>  (1) 
single protein format

>  <published_units>  (1) 
None

>  <pchembl_value>  (1) 
6.36

>  <published_type>  (1) 
pIC50

>  <activity_comment>  (1) 
None

$$$$

     RDKit          

 22 25  0  0  0  0  0  0  0  0999 V2000
    0.0000    0.0000    0.0000 C   0  0  0  0  0  0  0  0  0  0  0  0
    0.0000    0.0000    0.0000 N   0  0  0  0  0  0  0  0  0  0  0  0
    0.0000    0.0000    0.0000 C   0  0  0  0  0  0  0  0  0  0  0  0
    0.0000    0.0000    0.0000 C   0  0  0  0  0  0  0  0  0  0  0  0
    0.0000    0.0000    0.0000 C   0  0  0  0  0  0  0  0  0  0  0  0
    0.0000    0.0000    0.0000 C   0  0  0  0  0  0  0  0  0  0  0  0
    0.0000    0.0000    0.0000 C   0  0  0  0  0  0  0  0  0  0  0  0
    0.0000    0.0000    0.0000 N   0  0  0  0  0  0  0  0  0  0  0  0
    0.0000    0.0000    0.0000 O   0  0  0  0  0  0  0  0  0  0  0  0
    0.0000    0.0000    0.0000 C   0  0  0  0  0  0  0  0  0  0  0  0
    0.0000    0.0000    0.0000 C   0  0  0  0  0  0  0  0  0  0  0  0
    0.0000    0.0000    0.0000 C   0  0  0  0  0  0  0  0  0  0  0  0
    0.0000    0.0000    0.0000 C   0  0  0  0  0  0  0  0  0  0  0  0
    0.0000    0.0000    0.0000 C   0  0  0  0  0  0  0  0  0  0  0  0
    0.0000    0.0000    0.0000 C   0  0  0  0  0  0  0  0  0  0  0  0
    0.0000    0.0000    0.0000 C   0  0  0  0  0  0  0  0  0  0  0  0
    0.0000    0.0000    0.0000 C   0  0  0  0  0  0  0  0  0  0  0  0
    0.0000    0.0000    0.0000 C   0  0  0  0  0  0  0  0  0  0  0  0
    0.0000    0.0000    0.0000 C   0  0  0  0  0  0  0  0  0  0  0  0
    0.0000    0.0000    0.0000 C   0  0  0  0  0  0  0  0  0  0  0  0
    0.0000    0.0000    0.0000 C   0  0  0  0  0  0  0  0  0  0  0  0
    0.0000    0.0000    0.0000 C   0  0  0  0  0  0  0  0  0  0  0  0
  1  2  1  0
  2  3  1  0
  2  4  1  0
  4  5  1  0
  5  6  1  0
  6  7  1  0
  7  8  1  0
  8  9  1  0
  8 10  1  0
 10 11  2  0
 11 12  1  0
 12 13  2  0
 13 14  1  0
 14 15  2  0
 15 16  1  0
 16 17  1  0
 17 18  2  0
 18 19  1  0
 19 20  2  0
 20 21  1  0
 21 22  2  0
  9  5  1  0
 22  7  1  0
 15 10  1  0
 22 17  1  0
M  END
>  <pIC50>  (2) 
6.43

>  <ChEMBL_ID>  (2) 
CHEMBL83658

>  <document_journal>  (2) 
Bioorg. Med. Chem. Lett.

>  <bao_endpoint>  (2) 
BAO_0000190

>  <potential_duplicate>  (2) 
False

>  <uo_units>  (2) 
UO_0000065

>  <canonical_smiles>  (2) 
CN(C)CC1CC2N(O1)c3ccccc3Cc4ccccc24

>  <parent_molecule_chembl_id>  (2) 
CHEMBL83658

>  <assay_type>  (2) 
B

>  <src_id>  (2) 
1

>  <ligand_efficiency>  (2) 
{u'le': u'0.4', u'bei': u'21.84', u'sei': u'40.93', u'lle': u'2.77'}

>  <standard_flag>  (2) 
True

>  <molecule_chembl_id>  (2) 
CHEMBL83658

>  <target_organism>  (2) 
Homo sapiens

>  <standard_units>  (2) 
nM

>  <record_id>  (2) 
147852

>  <document_chembl_id>  (2) 
CHEMBL1135380

>  <bao_format>  (2) 
BAO_0000357

>  <data_validity_description>  (2) 
None

>  <activity_id>  (2) 
372642

>  <standard_type>  (2) 
IC50

>  <target_chembl_id>  (2) 
CHEMBL1867

>  <data_validity_comment>  (2) 
None

>  <published_value>  (2) 
6.43

>  <document_year>  (2) 
2002

>  <target_pref_name>  (2) 
Alpha-2a adrenergic receptor

>  <assay_chembl_id>  (2) 
CHEMBL640498

>  <standard_relation>  (2) 
=

>  <assay_description>  (2) 
Binding affinity for human cloned Alpha-2A adrenergic receptor

>  <published_relation>  (2) 
=

>  <standard_value>  (2) 
371.54

>  <qudt_units>  (2) 
http://www.openphacts.org/units/Nanomolar

>  <target_tax_id>  (2) 
9606

>  <bao_label>  (2) 
single protein format

>  <published_units>  (2) 
None

>  <pchembl_value>  (2) 
6.43

>  <published_type>  (2) 
pIC50

>  <activity_comment>  (2) 
None

$$$$

     RDKit          

 20 23  0  0  0  0  0  0  0  0999 V2000
    0.0000    0.0000    0.0000 C   0  0  0  0  0  0  0  0  0  0  0  0
    0.0000    0.0000    0.0000 N   0  0  0  0  0  0  0  0  0  0  0  0
    0.0000    0.0000    0.0000 C   0  0  0  0  0  0  0  0  0  0  0  0
    0.0000    0.0000    0.0000 C   0  0  0  0  0  0  0  0  0  0  0  0
    0.0000    0.0000    0.0000 N   0  0  0  0  0  0  0  0  0  0  0  0
    0.0000    0.0000    0.0000 C   0  0  0  0  0  0  0  0  0  0  0  0
    0.0000    0.0000    0.0000 C   0  0  0  0  0  0  0  0  0  0  0  0
    0.0000    0.0000    0.0000 C   0  0  0  0  0  0  0  0  0  0  0  0
    0.0000    0.0000    0.0000 C   0  0  0  0  0  0  0  0  0  0  0  0
    0.0000    0.0000    0.0000 C   0  0  0  0  0  0  0  0  0  0  0  0
    0.0000    0.0000    0.0000 C   0  0  0  0  0  0  0  0  0  0  0  0
    0.0000    0.0000    0.0000 C   0  0  0  0  0  0  0  0  0  0  0  0
    0.0000    0.0000    0.0000 C   0  0  0  0  0  0  0  0  0  0  0  0
    0.0000    0.0000    0.0000 C   0  0  0  0  0  0  0  0  0  0  0  0
    0.0000    0.0000    0.0000 C   0  0  0  0  0  0  0  0  0  0  0  0
    0.0000    0.0000    0.0000 C   0  0  0  0  0  0  0  0  0  0  0  0
    0.0000    0.0000    0.0000 C   0  0  0  0  0  0  0  0  0  0  0  0
    0.0000    0.0000    0.0000 C   0  0  0  0  0  0  0  0  0  0  0  0
    0.0000    0.0000    0.0000 C   0  0  0  0  0  0  0  0  0  0  0  0
    0.0000    0.0000    0.0000 C   0  0  0  0  0  0  0  0  0  0  0  0
  1  2  1  0
  2  3  1  0
  3  4  1  0
  4  5  1  0
  5  6  1  0
  6  7  1  0
  6  8  1  0
  8  9  2  0
  9 10  1  0
 10 11  2  0
 11 12  1  0
 12 13  2  0
 13 14  1  0
 14 15  1  0
 15 16  2  0
 16 17  1  0
 17 18  2  0
 18 19  1  0
 19 20  2  0
  7  2  1  0
 20  5  1  0
 13  8  1  0
 20 15  1  0
M  END
>  <pIC50>  (3) 
7.525

>  <ChEMBL_ID>  (3) 
CHEMBL6437

>  <document_journal>  (3) 
Bioorg. Med. Chem. Lett.

>  <bao_endpoint>  (3) 
BAO_0000190

>  <potential_duplicate>  (3) 
False

>  <uo_units>  (3) 
UO_0000065

>  <canonical_smiles>  (3) 
CN1CCN2C(C1)c3ccccc3Cc4ccccc24

>  <parent_molecule_chembl_id>  (3) 
CHEMBL6437

>  <assay_type>  (3) 
B

>  <src_id>  (3) 
1

>  <ligand_efficiency>  (3) 
{u'le': u'0.52', u'bei': u'29.05', u'sei': u'118.52', u'lle': u'3.97'}

>  <standard_flag>  (3) 
True

>  <molecule_chembl_id>  (3) 
CHEMBL6437

>  <target_organism>  (3) 
Homo sapiens

>  <standard_units>  (3) 
nM

>  <record_id>  (3) 
147857

>  <document_chembl_id>  (3) 
CHEMBL1135380

>  <bao_format>  (3) 
BAO_0000357

>  <data_validity_description>  (3) 
None

>  <activity_id>  (3) 
386976

>  <standard_type>  (3) 
IC50

>  <target_chembl_id>  (3) 
CHEMBL1867

>  <data_validity_comment>  (3) 
None

>  <published_value>  (3) 
7.68

>  <document_year>  (3) 
2002

>  <target_pref_name>  (3) 
Alpha-2a adrenergic receptor

>  <assay_chembl_id>  (3) 
CHEMBL640498

>  <standard_relation>  (3) 
=

>  <assay_description>  (3) 
Binding affinity for human cloned Alpha-2A adrenergic receptor

>  <published_relation>  (3) 
=

>  <standard_value>  (3) 
20.89

>  <qudt_units>  (3) 
http://www.openphacts.org/units/Nanomolar

>  <target_tax_id>  (3) 
9606

>  <bao_label>  (3) 
single protein format

>  <published_units>  (3) 
None

>  <pchembl_value>  (3) 
7.68

>  <published_type>  (3) 
pIC50

>  <activity_comment>  (3) 
None

$$$$

     RDKit          

 23 26  0  0  0  0  0  0  0  0999 V2000
    0.0000    0.0000    0.0000 C   0  0  0  0  0  0  0  0  0  0  0  0
    0.0000    0.0000    0.0000 N   0  0  0  0  0  0  0  0  0  0  0  0
    0.0000    0.0000    0.0000 C   0  0  0  0  0  0  0  0  0  0  0  0
    0.0000    0.0000    0.0000 C   0  0  0  0  0  0  0  0  0  0  0  0
    0.0000    0.0000    0.0000 C   0  0  0  0  0  0  0  0  0  0  0  0
    0.0000    0.0000    0.0000 C   0  0  0  0  0  0  0  0  0  0  0  0
    0.0000    0.0000    0.0000 C   0  0  0  0  0  0  0  0  0  0  0  0
    0.0000    0.0000    0.0000 N   0  0  0  0  0  0  0  0  0  0  0  0
    0.0000    0.0000    0.0000 O   0  0  0  0  0  0  0  0  0  0  0  0
    0.0000    0.0000    0.0000 C   0  0  0  0  0  0  0  0  0  0  0  0
    0.0000    0.0000    0.0000 C   0  0  0  0  0  0  0  0  0  0  0  0
    0.0000    0.0000    0.0000 C   0  0  0  0  0  0  0  0  0  0  0  0
    0.0000    0.0000    0.0000 Cl  0  0  0  0  0  0  0  0  0  0  0  0
    0.0000    0.0000    0.0000 C   0  0  0  0  0  0  0  0  0  0  0  0
    0.0000    0.0000    0.0000 C   0  0  0  0  0  0  0  0  0  0  0  0
    0.0000    0.0000    0.0000 C   0  0  0  0  0  0  0  0  0  0  0  0
    0.0000    0.0000    0.0000 C   0  0  0  0  0  0  0  0  0  0  0  0
    0.0000    0.0000    0.0000 C   0  0  0  0  0  0  0  0  0  0  0  0
    0.0000    0.0000    0.0000 C   0  0  0  0  0  0  0  0  0  0  0  0
    0.0000    0.0000    0.0000 C   0  0  0  0  0  0  0  0  0  0  0  0
    0.0000    0.0000    0.0000 C   0  0  0  0  0  0  0  0  0  0  0  0
    0.0000    0.0000    0.0000 C   0  0  0  0  0  0  0  0  0  0  0  0
    0.0000    0.0000    0.0000 C   0  0  0  0  0  0  0  0  0  0  0  0
  1  2  1  0
  2  3  1  0
  2  4  1  0
  4  5  1  0
  5  6  1  0
  6  7  1  0
  7  8  1  0
  8  9  1  0
  8 10  1  0
 10 11  2  0
 11 12  1  0
 12 13  1  0
 12 14  2  0
 14 15  1  0
 15 16  2  0
 16 17  1  0
 17 18  1  0
 18 19  2  0
 19 20  1  0
 20 21  2  0
 21 22  1  0
 22 23  2  0
  9  5  1  0
 23  7  1  0
 16 10  1  0
 23 18  1  0
M  END
>  <pIC50>  (4) 
6.32

>  <ChEMBL_ID>  (4) 
CHEMBL315772

>  <document_journal>  (4) 
Bioorg. Med. Chem. Lett.

>  <bao_endpoint>  (4) 
BAO_0000190

>  <potential_duplicate>  (4) 
True

>  <uo_units>  (4) 
UO_0000065

>  <canonical_smiles>  (4) 
CN(C)CC1CC2N(O1)c3cc(Cl)ccc3Cc4ccccc24

>  <parent_molecule_chembl_id>  (4) 
CHEMBL315772

>  <assay_type>  (4) 
B

>  <src_id>  (4) 
1

>  <ligand_efficiency>  (4) 
{u'le': u'0.38', u'bei': u'19.22', u'sei': u'40.23', u'lle': u'2'}

>  <standard_flag>  (4) 
True

>  <molecule_chembl_id>  (4) 
CHEMBL315772

>  <target_organism>  (4) 
Homo sapiens

>  <standard_units>  (4) 
nM

>  <record_id>  (4) 
226248

>  <document_chembl_id>  (4) 
CHEMBL1135009

>  <bao_format>  (4) 
BAO_0000357

>  <data_validity_description>  (4) 
None

>  <activity_id>  (4) 
537455

>  <standard_type>  (4) 
IC50

>  <target_chembl_id>  (4) 
CHEMBL1867

>  <data_validity_comment>  (4) 
None

>  <published_value>  (4) 
-6.32

>  <document_year>  (4) 
2002

>  <target_pref_name>  (4) 
Alpha-2a adrenergic receptor

>  <assay_chembl_id>  (4) 
CHEMBL640500

>  <standard_relation>  (4) 
=

>  <assay_description>  (4) 
Binding affinity against Alpha-2A adrenergic receptor

>  <published_relation>  (4) 
=

>  <standard_value>  (4) 
478.63

>  <qudt_units>  (4) 
http://www.openphacts.org/units/Nanomolar

>  <target_tax_id>  (4) 
9606

>  <bao_label>  (4) 
single protein format

>  <published_units>  (4) 
None

>  <pchembl_value>  (4) 
6.32

>  <published_type>  (4) 
Log IC50

>  <activity_comment>  (4) 
None

$$$$

     RDKit          

 17 19  0  0  0  0  0  0  0  0999 V2000
    0.0000    0.0000    0.0000 C   0  0  0  0  0  0  0  0  0  0  0  0
    0.0000    0.0000    0.0000 C   0  0  0  0  0  0  0  0  0  0  0  0
    0.0000    0.0000    0.0000 N   0  0  0  0  0  0  0  0  0  0  0  0
    0.0000    0.0000    0.0000 C   0  0  0  0  0  0  0  0  0  0  0  0
    0.0000    0.0000    0.0000 C   0  0  0  0  0  0  0  0  0  0  0  0
    0.0000    0.0000    0.0000 C   0  0  0  0  0  0  0  0  0  0  0  0
    0.0000    0.0000    0.0000 N   0  0  0  0  0  0  0  0  0  0  0  0
    0.0000    0.0000    0.0000 C   0  0  0  0  0  0  0  0  0  0  0  0
    0.0000    0.0000    0.0000 C   0  0  0  0  0  0  0  0  0  0  0  0
    0.0000    0.0000    0.0000 C   0  0  0  0  0  0  0  0  0  0  0  0
    0.0000    0.0000    0.0000 C   0  0  0  0  0  0  0  0  0  0  0  0
    0.0000    0.0000    0.0000 O   0  0  0  0  0  0  0  0  0  0  0  0
    0.0000    0.0000    0.0000 C   0  0  0  0  0  0  0  0  0  0  0  0
    0.0000    0.0000    0.0000 C   0  0  0  0  0  0  0  0  0  0  0  0
    0.0000    0.0000    0.0000 C   0  0  0  0  0  0  0  0  0  0  0  0
    0.0000    0.0000    0.0000 C   0  0  0  0  0  0  0  0  0  0  0  0
    0.0000    0.0000    0.0000 C   0  0  0  0  0  0  0  0  0  0  0  0
  1  2  1  0
  2  3  1  0
  2  4  1  0
  4  5  1  0
  5  6  2  0
  6  7  1  0
  7  8  1  0
  8  9  2  0
  9 10  1  0
 10 11  2  0
 11 12  1  0
 12 13  1  0
 13 14  1  0
 14 15  1  0
 15 16  1  0
 16 17  2  0
 17  5  1  0
 17  8  1  0
 16 11  1  0
M  END
>  <pIC50>  (5) 
4.72

>  <ChEMBL_ID>  (5) 
CHEMBL133455

>  <document_journal>  (5) 
J. Med. Chem.

>  <bao_endpoint>  (5) 
BAO_0000190

>  <potential_duplicate>  (5) 
False

>  <uo_units>  (5) 
UO_0000065

>  <canonical_smiles>  (5) 
C[C@H](N)Cc1c[nH]c2ccc3OCCCc3c12

>  <parent_molecule_chembl_id>  (5) 
CHEMBL133455

>  <assay_type>  (5) 
B

>  <src_id>  (5) 
1

>  <ligand_efficiency>  (5) 
{u'le': u'0.38', u'bei': u'20.5', u'sei': u'9.25', u'lle': u'2.28'}

>  <standard_flag>  (5) 
True

>  <molecule_chembl_id>  (5) 
CHEMBL133455

>  <target_organism>  (5) 
Homo sapiens

>  <standard_units>  (5) 
nM

>  <record_id>  (5) 
256562

>  <document_chembl_id>  (5) 
CHEMBL1145094

>  <bao_format>  (5) 
BAO_0000357

>  <data_validity_description>  (5) 
None

>  <activity_id>  (5) 
684737

>  <standard_type>  (5) 
IC50

>  <target_chembl_id>  (5) 
CHEMBL1867

>  <data_validity_comment>  (5) 
None

>  <published_value>  (5) 
19

>  <document_year>  (5) 
2003

>  <target_pref_name>  (5) 
Alpha-2a adrenergic receptor

>  <assay_chembl_id>  (5) 
CHEMBL643238

>  <standard_relation>  (5) 
=

>  <assay_description>  (5) 
Inhibitory concentration required against Alpha-2A adrenergic receptor using [3H]clonidine radioligand

>  <published_relation>  (5) 
=

>  <standard_value>  (5) 
19000

>  <qudt_units>  (5) 
http://www.openphacts.org/units/Nanomolar

>  <target_tax_id>  (5) 
9606

>  <bao_label>  (5) 
single protein format

>  <published_units>  (5) 
uM

>  <pchembl_value>  (5) 
4.72

>  <published_type>  (5) 
IC50

>  <activity_comment>  (5) 
None

$$$$

     RDKit          

 23 26  0  0  0  0  0  0  0  0999 V2000
    0.0000    0.0000    0.0000 C   0  0  0  0  0  0  0  0  0  0  0  0
    0.0000    0.0000    0.0000 O   0  0  0  0  0  0  0  0  0  0  0  0
    0.0000    0.0000    0.0000 C   0  0  0  0  0  0  0  0  0  0  0  0
    0.0000    0.0000    0.0000 O   0  0  0  0  0  0  0  0  0  0  0  0
    0.0000    0.0000    0.0000 C   0  0  0  0  0  0  0  0  0  0  0  0
    0.0000    0.0000    0.0000 C   0  0  0  0  0  0  0  0  0  0  0  0
    0.0000    0.0000    0.0000 C   0  0  0  0  0  0  0  0  0  0  0  0
    0.0000    0.0000    0.0000 N   0  0  0  0  0  0  0  0  0  0  0  0
    0.0000    0.0000    0.0000 C   0  0  0  0  0  0  0  0  0  0  0  0
    0.0000    0.0000    0.0000 C   0  0  0  0  0  0  0  0  0  0  0  0
    0.0000    0.0000    0.0000 C   0  0  0  0  0  0  0  0  0  0  0  0
    0.0000    0.0000    0.0000 C   0  0  0  0  0  0  0  0  0  0  0  0
    0.0000    0.0000    0.0000 C   0  0  0  0  0  0  0  0  0  0  0  0
    0.0000    0.0000    0.0000 C   0  0  0  0  0  0  0  0  0  0  0  0
    0.0000    0.0000    0.0000 C   0  0  0  0  0  0  0  0  0  0  0  0
    0.0000    0.0000    0.0000 C   0  0  0  0  0  0  0  0  0  0  0  0
    0.0000    0.0000    0.0000 C   0  0  0  0  0  0  0  0  0  0  0  0
    0.0000    0.0000    0.0000 C   0  0  0  0  0  0  0  0  0  0  0  0
    0.0000    0.0000    0.0000 C   0  0  0  0  0  0  0  0  0  0  0  0
    0.0000    0.0000    0.0000 C   0  0  0  0  0  0  0  0  0  0  0  0
    0.0000    0.0000    0.0000 C   0  0  0  0  0  0  0  0  0  0  0  0
    0.0000    0.0000    0.0000 C   0  0  0  0  0  0  0  0  0  0  0  0
    0.0000    0.0000    0.0000 C   0  0  0  0  0  0  0  0  0  0  0  0
  1  2  1  0
  2  3  1  0
  3  4  1  0
  4  5  1  0
  5  6  1  0
  6  7  1  0
  7  8  1  0
  8  9  1  0
  9 10  1  0
 10 11  2  0
 11 12  1  0
 12 13  2  0
 13 14  1  0
 14 15  2  0
  8 16  1  0
 16 17  1  0
  5 18  1  0
 18 19  2  0
 19 20  1  0
 20 21  2  0
 21 22  1  0
 22 23  2  0
 23  3  1  0
 17  5  1  0
 15 10  1  0
 23 18  1  0
M  END
>  <pIC50>  (6) 
5.21

>  <ChEMBL_ID>  (6) 
CHEMBL138809

>  <document_journal>  (6) 
J. Med. Chem.

>  <bao_endpoint>  (6) 
BAO_0000190

>  <potential_duplicate>  (6) 
False

>  <uo_units>  (6) 
UO_0000065

>  <canonical_smiles>  (6) 
COC1OC2(CCN(Cc3ccccc3)CC2)c4ccccc14

>  <parent_molecule_chembl_id>  (6) 
CHEMBL138809

>  <assay_type>  (6) 
B

>  <src_id>  (6) 
1

>  <ligand_efficiency>  (6) 
{u'le': u'0.31', u'bei': u'16.83', u'sei': u'24', u'lle': u'2.2'}

>  <standard_flag>  (6) 
True

>  <molecule_chembl_id>  (6) 
CHEMBL138809

>  <target_organism>  (6) 
Homo sapiens

>  <standard_units>  (6) 
nM

>  <record_id>  (6) 
268789

>  <document_chembl_id>  (6) 
CHEMBL1135809

>  <bao_format>  (6) 
BAO_0000357

>  <data_validity_description>  (6) 
None

>  <activity_id>  (6) 
906596

>  <standard_type>  (6) 
IC50

>  <target_chembl_id>  (6) 
CHEMBL1867

>  <data_validity_comment>  (6) 
None

>  <published_value>  (6) 
6.2

>  <document_year>  (6) 
2002

>  <target_pref_name>  (6) 
Alpha-2a adrenergic receptor

>  <assay_chembl_id>  (6) 
CHEMBL822169

>  <standard_relation>  (6) 
=

>  <assay_description>  (6) 
Inhibition of idazoxane binding to noradrenaline alpha-2 receptor

>  <published_relation>  (6) 
=

>  <standard_value>  (6) 
6200

>  <qudt_units>  (6) 
http://www.openphacts.org/units/Nanomolar

>  <target_tax_id>  (6) 
9606

>  <bao_label>  (6) 
single protein format

>  <published_units>  (6) 
uM

>  <pchembl_value>  (6) 
5.21

>  <published_type>  (6) 
IC50

>  <activity_comment>  (6) 
None

$$$$

     RDKit          

 26 29  0  0  0  0  0  0  0  0999 V2000
    0.0000    0.0000    0.0000 C   0  0  0  0  0  0  0  0  0  0  0  0
    0.0000    0.0000    0.0000 O   0  0  0  0  0  0  0  0  0  0  0  0
    0.0000    0.0000    0.0000 C   0  0  0  0  0  0  0  0  0  0  0  0
    0.0000    0.0000    0.0000 C   0  0  0  0  0  0  0  0  0  0  0  0
    0.0000    0.0000    0.0000 C   0  0  0  0  0  0  0  0  0  0  0  0
    0.0000    0.0000    0.0000 C   0  0  0  0  0  0  0  0  0  0  0  0
    0.0000    0.0000    0.0000 C   0  0  0  0  0  0  0  0  0  0  0  0
    0.0000    0.0000    0.0000 C   0  0  0  0  0  0  0  0  0  0  0  0
    0.0000    0.0000    0.0000 C   0  0  0  0  0  0  0  0  0  0  0  0
    0.0000    0.0000    0.0000 C   0  0  0  0  0  0  0  0  0  0  0  0
    0.0000    0.0000    0.0000 C   0  0  0  0  0  0  0  0  0  0  0  0
    0.0000    0.0000    0.0000 C   0  0  0  0  0  0  0  0  0  0  0  0
    0.0000    0.0000    0.0000 C   0  0  0  0  0  0  0  0  0  0  0  0
    0.0000    0.0000    0.0000 N   0  0  0  0  0  0  0  0  0  0  0  0
    0.0000    0.0000    0.0000 C   0  0  0  0  0  0  0  0  0  0  0  0
    0.0000    0.0000    0.0000 C   0  0  0  0  0  0  0  0  0  0  0  0
    0.0000    0.0000    0.0000 C   0  0  0  0  0  0  0  0  0  0  0  0
    0.0000    0.0000    0.0000 C   0  0  0  0  0  0  0  0  0  0  0  0
    0.0000    0.0000    0.0000 C   0  0  0  0  0  0  0  0  0  0  0  0
    0.0000    0.0000    0.0000 C   0  0  0  0  0  0  0  0  0  0  0  0
    0.0000    0.0000    0.0000 C   0  0  0  0  0  0  0  0  0  0  0  0
    0.0000    0.0000    0.0000 C   0  0  0  0  0  0  0  0  0  0  0  0
    0.0000    0.0000    0.0000 C   0  0  0  0  0  0  0  0  0  0  0  0
    0.0000    0.0000    0.0000 C   0  0  0  0  0  0  0  0  0  0  0  0
    0.0000    0.0000    0.0000 C   0  0  0  0  0  0  0  0  0  0  0  0
    0.0000    0.0000    0.0000 O   0  0  0  0  0  0  0  0  0  0  0  0
  1  2  1  0
  2  3  1  0
  3  4  1  0
  4  5  1  0
  5  6  2  0
  6  7  1  0
  7  8  2  0
  8  9  1  0
  9 10  2  0
 10 11  1  0
 11 12  1  0
 12 13  1  0
 13 14  1  0
 14 15  1  0
 15 16  1  0
 16 17  1  0
 17 18  1  0
 18 19  2  0
 19 20  1  0
 20 21  2  0
 21 22  1  0
 22 23  2  0
 14 24  1  0
 24 25  1  0
 11 26  1  0
 26  3  1  0
 10  5  1  0
 25 11  1  0
 23 18  1  0
M  END
>  <pIC50>  (7) 
5.51

>  <ChEMBL_ID>  (7) 
CHEMBL138458

>  <document_journal>  (7) 
J. Med. Chem.

>  <bao_endpoint>  (7) 
BAO_0000190

>  <potential_duplicate>  (7) 
False

>  <uo_units>  (7) 
UO_0000065

>  <canonical_smiles>  (7) 
COC1Cc2ccccc2C3(CCN(CCCc4ccccc4)CC3)O1

>  <parent_molecule_chembl_id>  (7) 
CHEMBL138458

>  <assay_type>  (7) 
B

>  <src_id>  (7) 
1

>  <ligand_efficiency>  (7) 
{u'le': u'0.29', u'bei': u'15.67', u'sei': u'25.39', u'lle': u'1.66'}

>  <standard_flag>  (7) 
True

>  <molecule_chembl_id>  (7) 
CHEMBL138458

>  <target_organism>  (7) 
Homo sapiens

>  <standard_units>  (7) 
nM

>  <record_id>  (7) 
268773

>  <document_chembl_id>  (7) 
CHEMBL1135809

>  <bao_format>  (7) 
BAO_0000357

>  <data_validity_description>  (7) 
None

>  <activity_id>  (7) 
911812

>  <standard_type>  (7) 
IC50

>  <target_chembl_id>  (7) 
CHEMBL1867

>  <data_validity_comment>  (7) 
None

>  <published_value>  (7) 
3.1

>  <document_year>  (7) 
2002

>  <target_pref_name>  (7) 
Alpha-2a adrenergic receptor

>  <assay_chembl_id>  (7) 
CHEMBL822169

>  <standard_relation>  (7) 
=

>  <assay_description>  (7) 
Inhibition of idazoxane binding to noradrenaline alpha-2 receptor

>  <published_relation>  (7) 
=

>  <standard_value>  (7) 
3100

>  <qudt_units>  (7) 
http://www.openphacts.org/units/Nanomolar

>  <target_tax_id>  (7) 
9606

>  <bao_label>  (7) 
single protein format

>  <published_units>  (7) 
uM

>  <pchembl_value>  (7) 
5.51

>  <published_type>  (7) 
IC50

>  <activity_comment>  (7) 
None

$$$$

     RDKit          

 24 27  0  0  0  0  0  0  0  0999 V2000
    0.0000    0.0000    0.0000 C   0  0  0  0  0  0  0  0  0  0  0  0
    0.0000    0.0000    0.0000 O   0  0  0  0  0  0  0  0  0  0  0  0
    0.0000    0.0000    0.0000 C   0  0  0  0  0  0  0  0  0  0  0  0
    0.0000    0.0000    0.0000 C   0  0  0  0  0  0  0  0  0  0  0  0
    0.0000    0.0000    0.0000 C   0  0  0  0  0  0  0  0  0  0  0  0
    0.0000    0.0000    0.0000 C   0  0  0  0  0  0  0  0  0  0  0  0
    0.0000    0.0000    0.0000 C   0  0  0  0  0  0  0  0  0  0  0  0
    0.0000    0.0000    0.0000 C   0  0  0  0  0  0  0  0  0  0  0  0
    0.0000    0.0000    0.0000 C   0  0  0  0  0  0  0  0  0  0  0  0
    0.0000    0.0000    0.0000 C   0  0  0  0  0  0  0  0  0  0  0  0
    0.0000    0.0000    0.0000 C   0  0  0  0  0  0  0  0  0  0  0  0
    0.0000    0.0000    0.0000 C   0  0  0  0  0  0  0  0  0  0  0  0
    0.0000    0.0000    0.0000 C   0  0  0  0  0  0  0  0  0  0  0  0
    0.0000    0.0000    0.0000 N   0  0  0  0  0  0  0  0  0  0  0  0
    0.0000    0.0000    0.0000 C   0  0  0  0  0  0  0  0  0  0  0  0
    0.0000    0.0000    0.0000 C   0  0  0  0  0  0  0  0  0  0  0  0
    0.0000    0.0000    0.0000 C   0  0  0  0  0  0  0  0  0  0  0  0
    0.0000    0.0000    0.0000 C   0  0  0  0  0  0  0  0  0  0  0  0
    0.0000    0.0000    0.0000 C   0  0  0  0  0  0  0  0  0  0  0  0
    0.0000    0.0000    0.0000 C   0  0  0  0  0  0  0  0  0  0  0  0
    0.0000    0.0000    0.0000 C   0  0  0  0  0  0  0  0  0  0  0  0
    0.0000    0.0000    0.0000 C   0  0  0  0  0  0  0  0  0  0  0  0
    0.0000    0.0000    0.0000 C   0  0  0  0  0  0  0  0  0  0  0  0
    0.0000    0.0000    0.0000 O   0  0  0  0  0  0  0  0  0  0  0  0
  1  2  1  0
  2  3  1  0
  3  4  1  0
  4  5  1  0
  5  6  2  0
  6  7  1  0
  7  8  2  0
  8  9  1  0
  9 10  2  0
 10 11  1  0
 11 12  1  0
 12 13  1  0
 13 14  1  0
 14 15  1  0
 15 16  1  0
 16 17  2  0
 17 18  1  0
 18 19  2  0
 19 20  1  0
 20 21  2  0
 14 22  1  0
 22 23  1  0
 11 24  1  0
 24  3  1  0
 10  5  1  0
 23 11  1  0
 21 16  1  0
M  END
>  <pIC50>  (8) 
5.52

>  <ChEMBL_ID>  (8) 
CHEMBL141209

>  <document_journal>  (8) 
J. Med. Chem.

>  <bao_endpoint>  (8) 
BAO_0000190

>  <potential_duplicate>  (8) 
False

>  <uo_units>  (8) 
UO_0000065

>  <canonical_smiles>  (8) 
COC1Cc2ccccc2C3(CCN(Cc4ccccc4)CC3)O1

>  <parent_molecule_chembl_id>  (8) 
CHEMBL141209

>  <assay_type>  (8) 
B

>  <src_id>  (8) 
1

>  <ligand_efficiency>  (8) 
{u'le': u'0.31', u'bei': u'17.08', u'sei': u'25.45', u'lle': u'2.45'}

>  <standard_flag>  (8) 
True

>  <molecule_chembl_id>  (8) 
CHEMBL141209

>  <target_organism>  (8) 
Homo sapiens

>  <standard_units>  (8) 
nM

>  <record_id>  (8) 
268768

>  <document_chembl_id>  (8) 
CHEMBL1135809

>  <bao_format>  (8) 
BAO_0000357

>  <data_validity_description>  (8) 
None

>  <activity_id>  (8) 
914572

>  <standard_type>  (8) 
IC50

>  <target_chembl_id>  (8) 
CHEMBL1867

>  <data_validity_comment>  (8) 
None

>  <published_value>  (8) 
3

>  <document_year>  (8) 
2002

>  <target_pref_name>  (8) 
Alpha-2a adrenergic receptor

>  <assay_chembl_id>  (8) 
CHEMBL822169

>  <standard_relation>  (8) 
=

>  <assay_description>  (8) 
Inhibition of idazoxane binding to noradrenaline alpha-2 receptor

>  <published_relation>  (8) 
=

>  <standard_value>  (8) 
3000

>  <qudt_units>  (8) 
http://www.openphacts.org/units/Nanomolar

>  <target_tax_id>  (8) 
9606

>  <bao_label>  (8) 
single protein format

>  <published_units>  (8) 
uM

>  <pchembl_value>  (8) 
5.52

>  <published_type>  (8) 
IC50

>  <activity_comment>  (8) 
None

$$$$

     RDKit          

 33 38  0  0  0  0  0  0  0  0999 V2000
    0.0000    0.0000    0.0000 O   0  0  0  0  0  0  0  0  0  0  0  0
    0.0000    0.0000    0.0000 C   0  0  0  0  0  0  0  0  0  0  0  0
    0.0000    0.0000    0.0000 N   0  0  0  0  0  0  0  0  0  0  0  0
    0.0000    0.0000    0.0000 C   0  0  0  0  0  0  0  0  0  0  0  0
    0.0000    0.0000    0.0000 C   0  0  0  0  0  0  0  0  0  0  0  0
    0.0000    0.0000    0.0000 C   0  0  0  0  0  0  0  0  0  0  0  0
    0.0000    0.0000    0.0000 C   0  0  0  0  0  0  0  0  0  0  0  0
    0.0000    0.0000    0.0000 C   0  0  0  0  0  0  0  0  0  0  0  0
    0.0000    0.0000    0.0000 N   0  0  0  0  0  0  0  0  0  0  0  0
    0.0000    0.0000    0.0000 C   0  0  0  0  0  0  0  0  0  0  0  0
    0.0000    0.0000    0.0000 C   0  0  0  0  0  0  0  0  0  0  0  0
    0.0000    0.0000    0.0000 C   0  0  0  0  0  0  0  0  0  0  0  0
    0.0000    0.0000    0.0000 C   0  0  0  0  0  0  0  0  0  0  0  0
    0.0000    0.0000    0.0000 N   0  0  0  0  0  0  0  0  0  0  0  0
    0.0000    0.0000    0.0000 C   0  0  0  0  0  0  0  0  0  0  0  0
    0.0000    0.0000    0.0000 C   0  0  0  0  0  0  0  0  0  0  0  0
    0.0000    0.0000    0.0000 C   0  0  0  0  0  0  0  0  0  0  0  0
    0.0000    0.0000    0.0000 O   0  0  0  0  0  0  0  0  0  0  0  0
    0.0000    0.0000    0.0000 C   0  0  0  0  0  0  0  0  0  0  0  0
    0.0000    0.0000    0.0000 C   0  0  0  0  0  0  0  0  0  0  0  0
    0.0000    0.0000    0.0000 C   0  0  0  0  0  0  0  0  0  0  0  0
    0.0000    0.0000    0.0000 C   0  0  0  0  0  0  0  0  0  0  0  0
    0.0000    0.0000    0.0000 C   0  0  0  0  0  0  0  0  0  0  0  0
    0.0000    0.0000    0.0000 C   0  0  0  0  0  0  0  0  0  0  0  0
    0.0000    0.0000    0.0000 C   0  0  0  0  0  0  0  0  0  0  0  0
    0.0000    0.0000    0.0000 C   0  0  0  0  0  0  0  0  0  0  0  0
    0.0000    0.0000    0.0000 C   0  0  0  0  0  0  0  0  0  0  0  0
    0.0000    0.0000    0.0000 C   0  0  0  0  0  0  0  0  0  0  0  0
    0.0000    0.0000    0.0000 C   0  0  0  0  0  0  0  0  0  0  0  0
    0.0000    0.0000    0.0000 C   0  0  0  0  0  0  0  0  0  0  0  0
    0.0000    0.0000    0.0000 C   0  0  0  0  0  0  0  0  0  0  0  0
    0.0000    0.0000    0.0000 C   0  0  0  0  0  0  0  0  0  0  0  0
    0.0000    0.0000    0.0000 C   0  0  0  0  0  0  0  0  0  0  0  0
  1  2  2  0
  2  3  1  0
  3  4  1  0
  4  5  2  0
  5  6  1  0
  6  7  2  0
  7  8  1  0
  8  9  2  0
  9 10  1  0
 10 11  2  0
 11 12  1  0
 12 13  1  0
 13 14  1  0
 14 15  1  0
 15 16  1  0
 16 17  1  0
 17 18  1  0
 18 19  1  0
 19 20  2  0
 20 21  1  0
 21 22  2  0
 22 23  1  0
 23 24  2  0
 24 25  1  0
 25 26  1  0
 10 27  1  0
 27 28  1  0
 28 29  2  0
 29 30  1  0
 30 31  2  0
 31 32  1  0
 32 33  2  0
 11  2  1  0
  8  3  1  0
 26 14  1  0
 25 17  2  0
 24 19  1  0
 33 28  1  0
M  END
>  <pIC50>  (9) 
8.66

>  <ChEMBL_ID>  (9) 
CHEMBL162436

>  <document_journal>  (9) 
Bioorg. Med. Chem. Lett.

>  <bao_endpoint>  (9) 
BAO_0000190

>  <potential_duplicate>  (9) 
False

>  <uo_units>  (9) 
UO_0000065

>  <canonical_smiles>  (9) 
O=C1N2C=CC=CC2=NC(=C1CCN3CCc4oc5ccccc5c4C3)Cc6ccccc6

>  <parent_molecule_chembl_id>  (9) 
CHEMBL162436

>  <assay_type>  (9) 
B

>  <src_id>  (9) 
1

>  <ligand_efficiency>  (9) 
{u'le': u'0.36', u'bei': u'19.88', u'sei': u'17.66', u'lle': u'4.51'}

>  <standard_flag>  (9) 
True

>  <molecule_chembl_id>  (9) 
CHEMBL162436

>  <target_organism>  (9) 
Homo sapiens

>  <standard_units>  (9) 
nM

>  <record_id>  (9) 
320886

>  <document_chembl_id>  (9) 
CHEMBL1132860

>  <bao_format>  (9) 
BAO_0000219

>  <data_validity_description>  (9) 
None

>  <activity_id>  (9) 
949448

>  <standard_type>  (9) 
IC50

>  <target_chembl_id>  (9) 
CHEMBL1867

>  <data_validity_comment>  (9) 
None

>  <published_value>  (9) 
8.66

>  <document_year>  (9) 
2000

>  <target_pref_name>  (9) 
Alpha-2a adrenergic receptor

>  <assay_chembl_id>  (9) 
CHEMBL640335

>  <standard_relation>  (9) 
=

>  <assay_description>  (9) 
Binding affinity at human Alpha-2A adrenergic receptor in CHO cells by [3H]rauwolscine (1 nM) displacement.

>  <published_relation>  (9) 
=

>  <standard_value>  (9) 
2.188

>  <qudt_units>  (9) 
http://www.openphacts.org/units/Nanomolar

>  <target_tax_id>  (9) 
9606

>  <bao_label>  (9) 
cell-based format

>  <published_units>  (9) 
None

>  <pchembl_value>  (9) 
8.66

>  <published_type>  (9) 
pIC50

>  <activity_comment>  (9) 
None

$$$$

     RDKit          

 28 32  0  0  0  0  0  0  0  0999 V2000
    0.0000    0.0000    0.0000 C   0  0  0  0  0  0  0  0  0  0  0  0
    0.0000    0.0000    0.0000 C   0  0  0  0  0  0  0  0  0  0  0  0
    0.0000    0.0000    0.0000 C   0  0  0  0  0  0  0  0  0  0  0  0
    0.0000    0.0000    0.0000 C   0  0  0  0  0  0  0  0  0  0  0  0
    0.0000    0.0000    0.0000 C   0  0  0  0  0  0  0  0  0  0  0  0
    0.0000    0.0000    0.0000 N   0  0  0  0  0  0  0  0  0  0  0  0
    0.0000    0.0000    0.0000 C   0  0  0  0  0  0  0  0  0  0  0  0
    0.0000    0.0000    0.0000 C   0  0  0  0  0  0  0  0  0  0  0  0
    0.0000    0.0000    0.0000 C   0  0  0  0  0  0  0  0  0  0  0  0
    0.0000    0.0000    0.0000 O   0  0  0  0  0  0  0  0  0  0  0  0
    0.0000    0.0000    0.0000 C   0  0  0  0  0  0  0  0  0  0  0  0
    0.0000    0.0000    0.0000 C   0  0  0  0  0  0  0  0  0  0  0  0
    0.0000    0.0000    0.0000 Cl  0  0  0  0  0  0  0  0  0  0  0  0
    0.0000    0.0000    0.0000 C   0  0  0  0  0  0  0  0  0  0  0  0
    0.0000    0.0000    0.0000 C   0  0  0  0  0  0  0  0  0  0  0  0
    0.0000    0.0000    0.0000 C   0  0  0  0  0  0  0  0  0  0  0  0
    0.0000    0.0000    0.0000 C   0  0  0  0  0  0  0  0  0  0  0  0
    0.0000    0.0000    0.0000 C   0  0  0  0  0  0  0  0  0  0  0  0
    0.0000    0.0000    0.0000 C   0  0  0  0  0  0  0  0  0  0  0  0
    0.0000    0.0000    0.0000 C   0  0  0  0  0  0  0  0  0  0  0  0
    0.0000    0.0000    0.0000 O   0  0  0  0  0  0  0  0  0  0  0  0
    0.0000    0.0000    0.0000 N   0  0  0  0  0  0  0  0  0  0  0  0
    0.0000    0.0000    0.0000 C   0  0  0  0  0  0  0  0  0  0  0  0
    0.0000    0.0000    0.0000 C   0  0  0  0  0  0  0  0  0  0  0  0
    0.0000    0.0000    0.0000 C   0  0  0  0  0  0  0  0  0  0  0  0
    0.0000    0.0000    0.0000 C   0  0  0  0  0  0  0  0  0  0  0  0
    0.0000    0.0000    0.0000 C   0  0  0  0  0  0  0  0  0  0  0  0
    0.0000    0.0000    0.0000 N   0  0  0  0  0  0  0  0  0  0  0  0
  1  2  1  0
  2  3  2  0
  3  4  1  0
  4  5  1  0
  5  6  1  0
  6  7  1  0
  7  8  1  0
  8  9  1  0
  9 10  1  0
 10 11  1  0
 11 12  2  0
 12 13  1  0
 12 14  1  0
 14 15  2  0
 15 16  1  0
 16 17  2  0
 17 18  1  0
 18 19  1  0
  3 20  1  0
 20 21  2  0
 20 22  1  0
 22 23  1  0
 23 24  2  0
 24 25  1  0
 25 26  2  0
 26 27  1  0
 27 28  2  0
 28  2  1  0
 19  6  1  0
 18  9  2  0
 17 11  1  0
 27 22  1  0
M  END
>  <pIC50>  (10) 
9.05

>  <ChEMBL_ID>  (10) 
CHEMBL164612

>  <document_journal>  (10) 
Bioorg. Med. Chem. Lett.

>  <bao_endpoint>  (10) 
BAO_0000190

>  <potential_duplicate>  (10) 
False

>  <uo_units>  (10) 
UO_0000065

>  <canonical_smiles>  (10) 
CC1=C(CCN2CCc3oc4c(Cl)cccc4c3C2)C(=O)N5C=CC=CC5=N1

>  <parent_molecule_chembl_id>  (10) 
CHEMBL164612

>  <assay_type>  (10) 
B

>  <src_id>  (10) 
1

>  <ligand_efficiency>  (10) 
{u'le': u'0.44', u'bei': u'22.98', u'sei': u'18.45', u'lle': u'5.79'}

>  <standard_flag>  (10) 
True

>  <molecule_chembl_id>  (10) 
CHEMBL164612

>  <target_organism>  (10) 
Homo sapiens

>  <standard_units>  (10) 
nM

>  <record_id>  (10) 
320891

>  <document_chembl_id>  (10) 
CHEMBL1132860

>  <bao_format>  (10) 
BAO_0000219

>  <data_validity_description>  (10) 
None

>  <activity_id>  (10) 
950805

>  <standard_type>  (10) 
IC50

>  <target_chembl_id>  (10) 
CHEMBL1867

>  <data_validity_comment>  (10) 
None

>  <published_value>  (10) 
9.05

>  <document_year>  (10) 
2000

>  <target_pref_name>  (10) 
Alpha-2a adrenergic receptor

>  <assay_chembl_id>  (10) 
CHEMBL640335

>  <standard_relation>  (10) 
=

>  <assay_description>  (10) 
Binding affinity at human Alpha-2A adrenergic receptor in CHO cells by [3H]rauwolscine (1 nM) displacement.

>  <published_relation>  (10) 
=

>  <standard_value>  (10) 
0.8913

>  <qudt_units>  (10) 
http://www.openphacts.org/units/Nanomolar

>  <target_tax_id>  (10) 
9606

>  <bao_label>  (10) 
cell-based format

>  <published_units>  (10) 
None

>  <pchembl_value>  (10) 
9.05

>  <published_type>  (10) 
pIC50

>  <activity_comment>  (10) 
None

$$$$

     RDKit          

 29 33  0  0  0  0  0  0  0  0999 V2000
    0.0000    0.0000    0.0000 C   0  0  0  0  0  0  0  0  0  0  0  0
    0.0000    0.0000    0.0000 O   0  0  0  0  0  0  0  0  0  0  0  0
    0.0000    0.0000    0.0000 C   0  0  0  0  0  0  0  0  0  0  0  0
    0.0000    0.0000    0.0000 C   0  0  0  0  0  0  0  0  0  0  0  0
    0.0000    0.0000    0.0000 C   0  0  0  0  0  0  0  0  0  0  0  0
    0.0000    0.0000    0.0000 C   0  0  0  0  0  0  0  0  0  0  0  0
    0.0000    0.0000    0.0000 N   0  0  0  0  0  0  0  0  0  0  0  0
    0.0000    0.0000    0.0000 C   0  0  0  0  0  0  0  0  0  0  0  0
    0.0000    0.0000    0.0000 O   0  0  0  0  0  0  0  0  0  0  0  0
    0.0000    0.0000    0.0000 C   0  0  0  0  0  0  0  0  0  0  0  0
    0.0000    0.0000    0.0000 C   0  0  0  0  0  0  0  0  0  0  0  0
    0.0000    0.0000    0.0000 C   0  0  0  0  0  0  0  0  0  0  0  0
    0.0000    0.0000    0.0000 N   0  0  0  0  0  0  0  0  0  0  0  0
    0.0000    0.0000    0.0000 C   0  0  0  0  0  0  0  0  0  0  0  0
    0.0000    0.0000    0.0000 C   0  0  0  0  0  0  0  0  0  0  0  0
    0.0000    0.0000    0.0000 C   0  0  0  0  0  0  0  0  0  0  0  0
    0.0000    0.0000    0.0000 N   0  0  0  0  0  0  0  0  0  0  0  0
    0.0000    0.0000    0.0000 C   0  0  0  0  0  0  0  0  0  0  0  0
    0.0000    0.0000    0.0000 C   0  0  0  0  0  0  0  0  0  0  0  0
    0.0000    0.0000    0.0000 C   0  0  0  0  0  0  0  0  0  0  0  0
    0.0000    0.0000    0.0000 O   0  0  0  0  0  0  0  0  0  0  0  0
    0.0000    0.0000    0.0000 C   0  0  0  0  0  0  0  0  0  0  0  0
    0.0000    0.0000    0.0000 C   0  0  0  0  0  0  0  0  0  0  0  0
    0.0000    0.0000    0.0000 C   0  0  0  0  0  0  0  0  0  0  0  0
    0.0000    0.0000    0.0000 C   0  0  0  0  0  0  0  0  0  0  0  0
    0.0000    0.0000    0.0000 C   0  0  0  0  0  0  0  0  0  0  0  0
    0.0000    0.0000    0.0000 C   0  0  0  0  0  0  0  0  0  0  0  0
    0.0000    0.0000    0.0000 C   0  0  0  0  0  0  0  0  0  0  0  0
    0.0000    0.0000    0.0000 C   0  0  0  0  0  0  0  0  0  0  0  0
  1  2  1  0
  2  3  1  0
  3  4  2  0
  4  5  1  0
  5  6  2  0
  6  7  1  0
  7  8  1  0
  8  9  2  0
  8 10  1  0
 10 11  2  0
 11 12  1  0
 11 13  1  0
 13 14  2  0
 10 15  1  0
 15 16  1  0
 16 17  1  0
 17 18  1  0
 18 19  1  0
 19 20  1  0
 20 21  1  0
 21 22  1  0
 22 23  2  0
 23 24  1  0
 24 25  2  0
 25 26  1  0
 26 27  2  0
 27 28  1  0
 28 29  1  0
 14  3  1  0
 14  7  1  0
 29 17  1  0
 28 20  2  0
 27 22  1  0
M  END
>  <pIC50>  (11) 
9.53

>  <ChEMBL_ID>  (11) 
CHEMBL162490

>  <document_journal>  (11) 
Bioorg. Med. Chem. Lett.

>  <bao_endpoint>  (11) 
BAO_0000190

>  <potential_duplicate>  (11) 
False

>  <uo_units>  (11) 
UO_0000065

>  <canonical_smiles>  (11) 
COC1=CC=CN2C(=O)C(=C(C)N=C12)CCN3CCc4oc5ccccc5c4C3

>  <parent_molecule_chembl_id>  (11) 
CHEMBL162490

>  <assay_type>  (11) 
B

>  <src_id>  (11) 
1

>  <ligand_efficiency>  (11) 
{u'le': u'0.45', u'bei': u'24.47', u'sei': u'16.35', u'lle': u'7.25'}

>  <standard_flag>  (11) 
True

>  <molecule_chembl_id>  (11) 
CHEMBL162490

>  <target_organism>  (11) 
Homo sapiens

>  <standard_units>  (11) 
nM

>  <record_id>  (11) 
320872

>  <document_chembl_id>  (11) 
CHEMBL1132860

>  <bao_format>  (11) 
BAO_0000219

>  <data_validity_description>  (11) 
None

>  <activity_id>  (11) 
950811

>  <standard_type>  (11) 
IC50

>  <target_chembl_id>  (11) 
CHEMBL1867

>  <data_validity_comment>  (11) 
None

>  <published_value>  (11) 
9.53

>  <document_year>  (11) 
2000

>  <target_pref_name>  (11) 
Alpha-2a adrenergic receptor

>  <assay_chembl_id>  (11) 
CHEMBL640335

>  <standard_relation>  (11) 
=

>  <assay_description>  (11) 
Binding affinity at human Alpha-2A adrenergic receptor in CHO cells by [3H]rauwolscine (1 nM) displacement.

>  <published_relation>  (11) 
=

>  <standard_value>  (11) 
0.2951

>  <qudt_units>  (11) 
http://www.openphacts.org/units/Nanomolar

>  <target_tax_id>  (11) 
9606

>  <bao_label>  (11) 
cell-based format

>  <published_units>  (11) 
None

>  <pchembl_value>  (11) 
9.53

>  <published_type>  (11) 
pIC50

>  <activity_comment>  (11) 
None

$$$$

     RDKit          

 28 32  0  0  0  0  0  0  0  0999 V2000
    0.0000    0.0000    0.0000 C   0  0  0  0  0  0  0  0  0  0  0  0
    0.0000    0.0000    0.0000 C   0  0  0  0  0  0  0  0  0  0  0  0
    0.0000    0.0000    0.0000 C   0  0  0  0  0  0  0  0  0  0  0  0
    0.0000    0.0000    0.0000 C   0  0  0  0  0  0  0  0  0  0  0  0
    0.0000    0.0000    0.0000 C   0  0  0  0  0  0  0  0  0  0  0  0
    0.0000    0.0000    0.0000 N   0  0  0  0  0  0  0  0  0  0  0  0
    0.0000    0.0000    0.0000 C   0  0  0  0  0  0  0  0  0  0  0  0
    0.0000    0.0000    0.0000 C   0  0  0  0  0  0  0  0  0  0  0  0
    0.0000    0.0000    0.0000 C   0  0  0  0  0  0  0  0  0  0  0  0
    0.0000    0.0000    0.0000 O   0  0  0  0  0  0  0  0  0  0  0  0
    0.0000    0.0000    0.0000 C   0  0  0  0  0  0  0  0  0  0  0  0
    0.0000    0.0000    0.0000 C   0  0  0  0  0  0  0  0  0  0  0  0
    0.0000    0.0000    0.0000 C   0  0  0  0  0  0  0  0  0  0  0  0
    0.0000    0.0000    0.0000 C   0  0  0  0  0  0  0  0  0  0  0  0
    0.0000    0.0000    0.0000 C   0  0  0  0  0  0  0  0  0  0  0  0
    0.0000    0.0000    0.0000 C   0  0  0  0  0  0  0  0  0  0  0  0
    0.0000    0.0000    0.0000 C   0  0  0  0  0  0  0  0  0  0  0  0
    0.0000    0.0000    0.0000 C   0  0  0  0  0  0  0  0  0  0  0  0
    0.0000    0.0000    0.0000 C   0  0  0  0  0  0  0  0  0  0  0  0
    0.0000    0.0000    0.0000 O   0  0  0  0  0  0  0  0  0  0  0  0
    0.0000    0.0000    0.0000 N   0  0  0  0  0  0  0  0  0  0  0  0
    0.0000    0.0000    0.0000 C   0  0  0  0  0  0  0  0  0  0  0  0
    0.0000    0.0000    0.0000 C   0  0  0  0  0  0  0  0  0  0  0  0
    0.0000    0.0000    0.0000 Cl  0  0  0  0  0  0  0  0  0  0  0  0
    0.0000    0.0000    0.0000 C   0  0  0  0  0  0  0  0  0  0  0  0
    0.0000    0.0000    0.0000 C   0  0  0  0  0  0  0  0  0  0  0  0
    0.0000    0.0000    0.0000 C   0  0  0  0  0  0  0  0  0  0  0  0
    0.0000    0.0000    0.0000 N   0  0  0  0  0  0  0  0  0  0  0  0
  1  2  1  0
  2  3  2  0
  3  4  1  0
  4  5  1  0
  5  6  1  0
  6  7  1  0
  7  8  1  0
  8  9  1  0
  9 10  1  0
 10 11  1  0
 11 12  2  0
 12 13  1  0
 13 14  2  0
 14 15  1  0
 15 16  2  0
 16 17  1  0
 17 18  1  0
  3 19  1  0
 19 20  2  0
 19 21  1  0
 21 22  1  0
 22 23  2  0
 23 24  1  0
 23 25  1  0
 25 26  2  0
 26 27  1  0
 27 28  2  0
 28  2  1  0
 18  6  1  0
 17  9  2  0
 16 11  1  0
 27 21  1  0
M  END
>  <pIC50>  (12) 
9.67

>  <ChEMBL_ID>  (12) 
CHEMBL351483

>  <document_journal>  (12) 
Bioorg. Med. Chem. Lett.

>  <bao_endpoint>  (12) 
BAO_0000190

>  <potential_duplicate>  (12) 
False

>  <uo_units>  (12) 
UO_0000065

>  <canonical_smiles>  (12) 
CC1=C(CCN2CCc3oc4ccccc4c3C2)C(=O)N5C=C(Cl)C=CC5=N1

>  <parent_molecule_chembl_id>  (12) 
CHEMBL351483

>  <assay_type>  (12) 
B

>  <src_id>  (12) 
1

>  <ligand_efficiency>  (12) 
{u'le': u'0.47', u'bei': u'24.55', u'sei': u'19.71', u'lle': u'6.7'}

>  <standard_flag>  (12) 
True

>  <molecule_chembl_id>  (12) 
CHEMBL351483

>  <target_organism>  (12) 
Homo sapiens

>  <standard_units>  (12) 
nM

>  <record_id>  (12) 
320889

>  <document_chembl_id>  (12) 
CHEMBL1132860

>  <bao_format>  (12) 
BAO_0000219

>  <data_validity_description>  (12) 
None

>  <activity_id>  (12) 
953503

>  <standard_type>  (12) 
IC50

>  <target_chembl_id>  (12) 
CHEMBL1867

>  <data_validity_comment>  (12) 
None

>  <published_value>  (12) 
9.67

>  <document_year>  (12) 
2000

>  <target_pref_name>  (12) 
Alpha-2a adrenergic receptor

>  <assay_chembl_id>  (12) 
CHEMBL640335

>  <standard_relation>  (12) 
=

>  <assay_description>  (12) 
Binding affinity at human Alpha-2A adrenergic receptor in CHO cells by [3H]rauwolscine (1 nM) displacement.

>  <published_relation>  (12) 
=

>  <standard_value>  (12) 
0.2138

>  <qudt_units>  (12) 
http://www.openphacts.org/units/Nanomolar

>  <target_tax_id>  (12) 
9606

>  <bao_label>  (12) 
cell-based format

>  <published_units>  (12) 
None

>  <pchembl_value>  (12) 
9.67

>  <published_type>  (12) 
pIC50

>  <activity_comment>  (12) 
None

$$$$

     RDKit          

 28 32  0  0  0  0  0  0  0  0999 V2000
    0.0000    0.0000    0.0000 C   0  0  0  0  0  0  0  0  0  0  0  0
    0.0000    0.0000    0.0000 C   0  0  0  0  0  0  0  0  0  0  0  0
    0.0000    0.0000    0.0000 C   0  0  0  0  0  0  0  0  0  0  0  0
    0.0000    0.0000    0.0000 C   0  0  0  0  0  0  0  0  0  0  0  0
    0.0000    0.0000    0.0000 C   0  0  0  0  0  0  0  0  0  0  0  0
    0.0000    0.0000    0.0000 N   0  0  0  0  0  0  0  0  0  0  0  0
    0.0000    0.0000    0.0000 C   0  0  0  0  0  0  0  0  0  0  0  0
    0.0000    0.0000    0.0000 C   0  0  0  0  0  0  0  0  0  0  0  0
    0.0000    0.0000    0.0000 C   0  0  0  0  0  0  0  0  0  0  0  0
    0.0000    0.0000    0.0000 O   0  0  0  0  0  0  0  0  0  0  0  0
    0.0000    0.0000    0.0000 C   0  0  0  0  0  0  0  0  0  0  0  0
    0.0000    0.0000    0.0000 C   0  0  0  0  0  0  0  0  0  0  0  0
    0.0000    0.0000    0.0000 C   0  0  0  0  0  0  0  0  0  0  0  0
    0.0000    0.0000    0.0000 C   0  0  0  0  0  0  0  0  0  0  0  0
    0.0000    0.0000    0.0000 Cl  0  0  0  0  0  0  0  0  0  0  0  0
    0.0000    0.0000    0.0000 C   0  0  0  0  0  0  0  0  0  0  0  0
    0.0000    0.0000    0.0000 C   0  0  0  0  0  0  0  0  0  0  0  0
    0.0000    0.0000    0.0000 C   0  0  0  0  0  0  0  0  0  0  0  0
    0.0000    0.0000    0.0000 C   0  0  0  0  0  0  0  0  0  0  0  0
    0.0000    0.0000    0.0000 C   0  0  0  0  0  0  0  0  0  0  0  0
    0.0000    0.0000    0.0000 O   0  0  0  0  0  0  0  0  0  0  0  0
    0.0000    0.0000    0.0000 N   0  0  0  0  0  0  0  0  0  0  0  0
    0.0000    0.0000    0.0000 C   0  0  0  0  0  0  0  0  0  0  0  0
    0.0000    0.0000    0.0000 C   0  0  0  0  0  0  0  0  0  0  0  0
    0.0000    0.0000    0.0000 C   0  0  0  0  0  0  0  0  0  0  0  0
    0.0000    0.0000    0.0000 C   0  0  0  0  0  0  0  0  0  0  0  0
    0.0000    0.0000    0.0000 C   0  0  0  0  0  0  0  0  0  0  0  0
    0.0000    0.0000    0.0000 N   0  0  0  0  0  0  0  0  0  0  0  0
  1  2  1  0
  2  3  2  0
  3  4  1  0
  4  5  1  0
  5  6  1  0
  6  7  1  0
  7  8  1  0
  8  9  1  0
  9 10  1  0
 10 11  1  0
 11 12  2  0
 12 13  1  0
 13 14  2  0
 14 15  1  0
 14 16  1  0
 16 17  2  0
 17 18  1  0
 18 19  1  0
  3 20  1  0
 20 21  2  0
 20 22  1  0
 22 23  1  0
 23 24  2  0
 24 25  1  0
 25 26  2  0
 26 27  1  0
 27 28  2  0
 28  2  1  0
 19  6  1  0
 18  9  2  0
 17 11  1  0
 27 22  1  0
M  END
>  <pIC50>  (13) 
8.41

>  <ChEMBL_ID>  (13) 
CHEMBL165677

>  <document_journal>  (13) 
Bioorg. Med. Chem. Lett.

>  <bao_endpoint>  (13) 
BAO_0000190

>  <potential_duplicate>  (13) 
False

>  <uo_units>  (13) 
UO_0000065

>  <canonical_smiles>  (13) 
CC1=C(CCN2CCc3oc4ccc(Cl)cc4c3C2)C(=O)N5C=CC=CC5=N1

>  <parent_molecule_chembl_id>  (13) 
CHEMBL165677

>  <assay_type>  (13) 
B

>  <src_id>  (13) 
1

>  <ligand_efficiency>  (13) 
{u'le': u'0.41', u'bei': u'21.35', u'sei': u'17.15', u'lle': u'5.15'}

>  <standard_flag>  (13) 
True

>  <molecule_chembl_id>  (13) 
CHEMBL165677

>  <target_organism>  (13) 
Homo sapiens

>  <standard_units>  (13) 
nM

>  <record_id>  (13) 
320890

>  <document_chembl_id>  (13) 
CHEMBL1132860

>  <bao_format>  (13) 
BAO_0000219

>  <data_validity_description>  (13) 
None

>  <activity_id>  (13) 
954797

>  <standard_type>  (13) 
IC50

>  <target_chembl_id>  (13) 
CHEMBL1867

>  <data_validity_comment>  (13) 
None

>  <published_value>  (13) 
8.41

>  <document_year>  (13) 
2000

>  <target_pref_name>  (13) 
Alpha-2a adrenergic receptor

>  <assay_chembl_id>  (13) 
CHEMBL640335

>  <standard_relation>  (13) 
=

>  <assay_description>  (13) 
Binding affinity at human Alpha-2A adrenergic receptor in CHO cells by [3H]rauwolscine (1 nM) displacement.

>  <published_relation>  (13) 
=

>  <standard_value>  (13) 
3.89

>  <qudt_units>  (13) 
http://www.openphacts.org/units/Nanomolar

>  <target_tax_id>  (13) 
9606

>  <bao_label>  (13) 
cell-based format

>  <published_units>  (13) 
None

>  <pchembl_value>  (13) 
8.41

>  <published_type>  (13) 
pIC50

>  <activity_comment>  (13) 
None

$$$$

     RDKit          

 28 32  0  0  0  0  0  0  0  0999 V2000
    0.0000    0.0000    0.0000 C   0  0  0  0  0  0  0  0  0  0  0  0
    0.0000    0.0000    0.0000 C   0  0  0  0  0  0  0  0  0  0  0  0
    0.0000    0.0000    0.0000 C   0  0  0  0  0  0  0  0  0  0  0  0
    0.0000    0.0000    0.0000 C   0  0  0  0  0  0  0  0  0  0  0  0
    0.0000    0.0000    0.0000 C   0  0  0  0  0  0  0  0  0  0  0  0
    0.0000    0.0000    0.0000 N   0  0  0  0  0  0  0  0  0  0  0  0
    0.0000    0.0000    0.0000 C   0  0  0  0  0  0  0  0  0  0  0  0
    0.0000    0.0000    0.0000 C   0  0  0  0  0  0  0  0  0  0  0  0
    0.0000    0.0000    0.0000 C   0  0  0  0  0  0  0  0  0  0  0  0
    0.0000    0.0000    0.0000 O   0  0  0  0  0  0  0  0  0  0  0  0
    0.0000    0.0000    0.0000 C   0  0  0  0  0  0  0  0  0  0  0  0
    0.0000    0.0000    0.0000 C   0  0  0  0  0  0  0  0  0  0  0  0
    0.0000    0.0000    0.0000 C   0  0  0  0  0  0  0  0  0  0  0  0
    0.0000    0.0000    0.0000 C   0  0  0  0  0  0  0  0  0  0  0  0
    0.0000    0.0000    0.0000 C   0  0  0  0  0  0  0  0  0  0  0  0
    0.0000    0.0000    0.0000 C   0  0  0  0  0  0  0  0  0  0  0  0
    0.0000    0.0000    0.0000 C   0  0  0  0  0  0  0  0  0  0  0  0
    0.0000    0.0000    0.0000 C   0  0  0  0  0  0  0  0  0  0  0  0
    0.0000    0.0000    0.0000 C   0  0  0  0  0  0  0  0  0  0  0  0
    0.0000    0.0000    0.0000 O   0  0  0  0  0  0  0  0  0  0  0  0
    0.0000    0.0000    0.0000 N   0  0  0  0  0  0  0  0  0  0  0  0
    0.0000    0.0000    0.0000 C   0  0  0  0  0  0  0  0  0  0  0  0
    0.0000    0.0000    0.0000 C   0  0  0  0  0  0  0  0  0  0  0  0
    0.0000    0.0000    0.0000 Br  0  0  0  0  0  0  0  0  0  0  0  0
    0.0000    0.0000    0.0000 C   0  0  0  0  0  0  0  0  0  0  0  0
    0.0000    0.0000    0.0000 C   0  0  0  0  0  0  0  0  0  0  0  0
    0.0000    0.0000    0.0000 C   0  0  0  0  0  0  0  0  0  0  0  0
    0.0000    0.0000    0.0000 N   0  0  0  0  0  0  0  0  0  0  0  0
  1  2  1  0
  2  3  2  0
  3  4  1  0
  4  5  1  0
  5  6  1  0
  6  7  1  0
  7  8  1  0
  8  9  1  0
  9 10  1  0
 10 11  1  0
 11 12  2  0
 12 13  1  0
 13 14  2  0
 14 15  1  0
 15 16  2  0
 16 17  1  0
 17 18  1  0
  3 19  1  0
 19 20  2  0
 19 21  1  0
 21 22  1  0
 22 23  2  0
 23 24  1  0
 23 25  1  0
 25 26  2  0
 26 27  1  0
 27 28  2  0
 28  2  1  0
 18  6  1  0
 17  9  2  0
 16 11  1  0
 27 21  1  0
M  END
>  <pIC50>  (14) 
9.45

>  <ChEMBL_ID>  (14) 
CHEMBL165350

>  <document_journal>  (14) 
Bioorg. Med. Chem. Lett.

>  <bao_endpoint>  (14) 
BAO_0000190

>  <potential_duplicate>  (14) 
False

>  <uo_units>  (14) 
UO_0000065

>  <canonical_smiles>  (14) 
CC1=C(CCN2CCc3oc4ccccc4c3C2)C(=O)N5C=C(Br)C=CC5=N1

>  <parent_molecule_chembl_id>  (14) 
CHEMBL165350

>  <assay_type>  (14) 
B

>  <src_id>  (14) 
1

>  <ligand_efficiency>  (14) 
{u'le': u'0.46', u'bei': u'21.56', u'sei': u'19.27', u'lle': u'6.4'}

>  <standard_flag>  (14) 
True

>  <molecule_chembl_id>  (14) 
CHEMBL165350

>  <target_organism>  (14) 
Homo sapiens

>  <standard_units>  (14) 
nM

>  <record_id>  (14) 
320887

>  <document_chembl_id>  (14) 
CHEMBL1132860

>  <bao_format>  (14) 
BAO_0000219

>  <data_validity_description>  (14) 
None

>  <activity_id>  (14) 
959941

>  <standard_type>  (14) 
IC50

>  <target_chembl_id>  (14) 
CHEMBL1867

>  <data_validity_comment>  (14) 
None

>  <published_value>  (14) 
9.45

>  <document_year>  (14) 
2000

>  <target_pref_name>  (14) 
Alpha-2a adrenergic receptor

>  <assay_chembl_id>  (14) 
CHEMBL640335

>  <standard_relation>  (14) 
=

>  <assay_description>  (14) 
Binding affinity at human Alpha-2A adrenergic receptor in CHO cells by [3H]rauwolscine (1 nM) displacement.

>  <published_relation>  (14) 
=

>  <standard_value>  (14) 
0.3548

>  <qudt_units>  (14) 
http://www.openphacts.org/units/Nanomolar

>  <target_tax_id>  (14) 
9606

>  <bao_label>  (14) 
cell-based format

>  <published_units>  (14) 
None

>  <pchembl_value>  (14) 
9.45

>  <published_type>  (14) 
pIC50

>  <activity_comment>  (14) 
None

$$$$

     RDKit          

 28 32  0  0  0  0  0  0  0  0999 V2000
    0.0000    0.0000    0.0000 C   0  0  0  0  0  0  0  0  0  0  0  0
    0.0000    0.0000    0.0000 C   0  0  0  0  0  0  0  0  0  0  0  0
    0.0000    0.0000    0.0000 C   0  0  0  0  0  0  0  0  0  0  0  0
    0.0000    0.0000    0.0000 C   0  0  0  0  0  0  0  0  0  0  0  0
    0.0000    0.0000    0.0000 N   0  0  0  0  0  0  0  0  0  0  0  0
    0.0000    0.0000    0.0000 C   0  0  0  0  0  0  0  0  0  0  0  0
    0.0000    0.0000    0.0000 C   0  0  0  0  0  0  0  0  0  0  0  0
    0.0000    0.0000    0.0000 C   0  0  0  0  0  0  0  0  0  0  0  0
    0.0000    0.0000    0.0000 C   0  0  0  0  0  0  0  0  0  0  0  0
    0.0000    0.0000    0.0000 N   0  0  0  0  0  0  0  0  0  0  0  0
    0.0000    0.0000    0.0000 C   0  0  0  0  0  0  0  0  0  0  0  0
    0.0000    0.0000    0.0000 C   0  0  0  0  0  0  0  0  0  0  0  0
    0.0000    0.0000    0.0000 C   0  0  0  0  0  0  0  0  0  0  0  0
    0.0000    0.0000    0.0000 O   0  0  0  0  0  0  0  0  0  0  0  0
    0.0000    0.0000    0.0000 C   0  0  0  0  0  0  0  0  0  0  0  0
    0.0000    0.0000    0.0000 C   0  0  0  0  0  0  0  0  0  0  0  0
    0.0000    0.0000    0.0000 C   0  0  0  0  0  0  0  0  0  0  0  0
    0.0000    0.0000    0.0000 C   0  0  0  0  0  0  0  0  0  0  0  0
    0.0000    0.0000    0.0000 C   0  0  0  0  0  0  0  0  0  0  0  0
    0.0000    0.0000    0.0000 C   0  0  0  0  0  0  0  0  0  0  0  0
    0.0000    0.0000    0.0000 C   0  0  0  0  0  0  0  0  0  0  0  0
    0.0000    0.0000    0.0000 C   0  0  0  0  0  0  0  0  0  0  0  0
    0.0000    0.0000    0.0000 C   0  0  0  0  0  0  0  0  0  0  0  0
    0.0000    0.0000    0.0000 O   0  0  0  0  0  0  0  0  0  0  0  0
    0.0000    0.0000    0.0000 N   0  0  0  0  0  0  0  0  0  0  0  0
    0.0000    0.0000    0.0000 C   0  0  0  0  0  0  0  0  0  0  0  0
    0.0000    0.0000    0.0000 C   0  0  0  0  0  0  0  0  0  0  0  0
    0.0000    0.0000    0.0000 C   0  0  0  0  0  0  0  0  0  0  0  0
  1  2  1  0
  2  3  2  0
  3  4  1  0
  4  5  2  0
  5  6  1  0
  6  7  2  0
  7  8  1  0
  8  9  1  0
  9 10  1  0
 10 11  1  0
 11 12  1  0
 12 13  1  0
 13 14  1  0
 14 15  1  0
 15 16  2  0
 16 17  1  0
 17 18  2  0
 18 19  1  0
 19 20  2  0
 20 21  1  0
 21 22  1  0
  7 23  1  0
 23 24  2  0
 23 25  1  0
 25 26  1  0
 26 27  2  0
  6 28  1  0
 27  2  1  0
 25  4  1  0
 22 10  1  0
 21 13  2  0
 20 15  1  0
M  END
>  <pIC50>  (15) 
9.35

>  <ChEMBL_ID>  (15) 
CHEMBL165796

>  <document_journal>  (15) 
Bioorg. Med. Chem. Lett.

>  <bao_endpoint>  (15) 
BAO_0000190

>  <potential_duplicate>  (15) 
False

>  <uo_units>  (15) 
UO_0000065

>  <canonical_smiles>  (15) 
CC1=CC2=NC(=C(CCN3CCc4oc5ccccc5c4C3)C(=O)N2C=C1)C

>  <parent_molecule_chembl_id>  (15) 
CHEMBL165796

>  <assay_type>  (15) 
B

>  <src_id>  (15) 
1

>  <ligand_efficiency>  (15) 
{u'le': u'0.46', u'bei': u'25.04', u'sei': u'19.06', u'lle': u'6.31'}

>  <standard_flag>  (15) 
True

>  <molecule_chembl_id>  (15) 
CHEMBL165796

>  <target_organism>  (15) 
Homo sapiens

>  <standard_units>  (15) 
nM

>  <record_id>  (15) 
320878

>  <document_chembl_id>  (15) 
CHEMBL1132860

>  <bao_format>  (15) 
BAO_0000219

>  <data_validity_description>  (15) 
None

>  <activity_id>  (15) 
961125

>  <standard_type>  (15) 
IC50

>  <target_chembl_id>  (15) 
CHEMBL1867

>  <data_validity_comment>  (15) 
None

>  <published_value>  (15) 
9.35

>  <document_year>  (15) 
2000

>  <target_pref_name>  (15) 
Alpha-2a adrenergic receptor

>  <assay_chembl_id>  (15) 
CHEMBL640335

>  <standard_relation>  (15) 
=

>  <assay_description>  (15) 
Binding affinity at human Alpha-2A adrenergic receptor in CHO cells by [3H]rauwolscine (1 nM) displacement.

>  <published_relation>  (15) 
=

>  <standard_value>  (15) 
0.4467

>  <qudt_units>  (15) 
http://www.openphacts.org/units/Nanomolar

>  <target_tax_id>  (15) 
9606

>  <bao_label>  (15) 
cell-based format

>  <published_units>  (15) 
None

>  <pchembl_value>  (15) 
9.35

>  <published_type>  (15) 
pIC50

>  <activity_comment>  (15) 
None

$$$$

     RDKit          

 31 35  0  0  0  0  0  0  0  0999 V2000
    0.0000    0.0000    0.0000 C   0  0  0  0  0  0  0  0  0  0  0  0
    0.0000    0.0000    0.0000 O   0  0  0  0  0  0  0  0  0  0  0  0
    0.0000    0.0000    0.0000 C   0  0  0  0  0  0  0  0  0  0  0  0
    0.0000    0.0000    0.0000 C   0  0  0  0  0  0  0  0  0  0  0  0
    0.0000    0.0000    0.0000 N   0  0  0  0  0  0  0  0  0  0  0  0
    0.0000    0.0000    0.0000 C   0  0  0  0  0  0  0  0  0  0  0  0
    0.0000    0.0000    0.0000 O   0  0  0  0  0  0  0  0  0  0  0  0
    0.0000    0.0000    0.0000 C   0  0  0  0  0  0  0  0  0  0  0  0
    0.0000    0.0000    0.0000 C   0  0  0  0  0  0  0  0  0  0  0  0
    0.0000    0.0000    0.0000 C   0  0  0  0  0  0  0  0  0  0  0  0
    0.0000    0.0000    0.0000 N   0  0  0  0  0  0  0  0  0  0  0  0
    0.0000    0.0000    0.0000 C   0  0  0  0  0  0  0  0  0  0  0  0
    0.0000    0.0000    0.0000 C   0  0  0  0  0  0  0  0  0  0  0  0
    0.0000    0.0000    0.0000 C   0  0  0  0  0  0  0  0  0  0  0  0
    0.0000    0.0000    0.0000 O   0  0  0  0  0  0  0  0  0  0  0  0
    0.0000    0.0000    0.0000 C   0  0  0  0  0  0  0  0  0  0  0  0
    0.0000    0.0000    0.0000 C   0  0  0  0  0  0  0  0  0  0  0  0
    0.0000    0.0000    0.0000 C   0  0  0  0  0  0  0  0  0  0  0  0
    0.0000    0.0000    0.0000 N   0  0  0  0  0  0  0  0  0  0  0  0
    0.0000    0.0000    0.0000 C   0  0  0  0  0  0  0  0  0  0  0  0
    0.0000    0.0000    0.0000 C   0  0  0  0  0  0  0  0  0  0  0  0
    0.0000    0.0000    0.0000 C   0  0  0  0  0  0  0  0  0  0  0  0
    0.0000    0.0000    0.0000 O   0  0  0  0  0  0  0  0  0  0  0  0
    0.0000    0.0000    0.0000 C   0  0  0  0  0  0  0  0  0  0  0  0
    0.0000    0.0000    0.0000 C   0  0  0  0  0  0  0  0  0  0  0  0
    0.0000    0.0000    0.0000 C   0  0  0  0  0  0  0  0  0  0  0  0
    0.0000    0.0000    0.0000 C   0  0  0  0  0  0  0  0  0  0  0  0
    0.0000    0.0000    0.0000 C   0  0  0  0  0  0  0  0  0  0  0  0
    0.0000    0.0000    0.0000 C   0  0  0  0  0  0  0  0  0  0  0  0
    0.0000    0.0000    0.0000 C   0  0  0  0  0  0  0  0  0  0  0  0
    0.0000    0.0000    0.0000 C   0  0  0  0  0  0  0  0  0  0  0  0
  1  2  1  0
  2  3  1  0
  3  4  2  0
  4  5  1  0
  5  6  1  0
  6  7  2  0
  6  8  1  0
  8  9  2  0
  9 10  1  0
  9 11  1  0
 11 12  2  0
 12 13  1  0
 13 14  2  0
 14 15  1  0
 15 16  1  0
  8 17  1  0
 17 18  1  0
 18 19  1  0
 19 20  1  0
 20 21  1  0
 21 22  1  0
 22 23  1  0
 23 24  1  0
 24 25  2  0
 25 26  1  0
 26 27  2  0
 27 28  1  0
 28 29  2  0
 29 30  1  0
 30 31  1  0
 14  3  1  0
 12  5  1  0
 31 19  1  0
 30 22  2  0
 29 24  1  0
M  END
>  <pIC50>  (16) 
8.45

>  <ChEMBL_ID>  (16) 
CHEMBL162058

>  <document_journal>  (16) 
Bioorg. Med. Chem. Lett.

>  <bao_endpoint>  (16) 
BAO_0000190

>  <potential_duplicate>  (16) 
False

>  <uo_units>  (16) 
UO_0000065

>  <canonical_smiles>  (16) 
COC1=CN2C(=O)C(=C(C)N=C2C=C1OC)CCN3CCc4oc5ccccc5c4C3

>  <parent_molecule_chembl_id>  (16) 
CHEMBL162058

>  <assay_type>  (16) 
B

>  <src_id>  (16) 
1

>  <ligand_efficiency>  (16) 
{u'le': u'0.37', u'bei': u'20.14', u'sei': u'12.52', u'lle': u'6.48'}

>  <standard_flag>  (16) 
True

>  <molecule_chembl_id>  (16) 
CHEMBL162058

>  <target_organism>  (16) 
Homo sapiens

>  <standard_units>  (16) 
nM

>  <record_id>  (16) 
320881

>  <document_chembl_id>  (16) 
CHEMBL1132860

>  <bao_format>  (16) 
BAO_0000219

>  <data_validity_description>  (16) 
None

>  <activity_id>  (16) 
963695

>  <standard_type>  (16) 
IC50

>  <target_chembl_id>  (16) 
CHEMBL1867

>  <data_validity_comment>  (16) 
None

>  <published_value>  (16) 
8.45

>  <document_year>  (16) 
2000

>  <target_pref_name>  (16) 
Alpha-2a adrenergic receptor

>  <assay_chembl_id>  (16) 
CHEMBL640335

>  <standard_relation>  (16) 
=

>  <assay_description>  (16) 
Binding affinity at human Alpha-2A adrenergic receptor in CHO cells by [3H]rauwolscine (1 nM) displacement.

>  <published_relation>  (16) 
=

>  <standard_value>  (16) 
3.548

>  <qudt_units>  (16) 
http://www.openphacts.org/units/Nanomolar

>  <target_tax_id>  (16) 
9606

>  <bao_label>  (16) 
cell-based format

>  <published_units>  (16) 
None

>  <pchembl_value>  (16) 
8.45

>  <published_type>  (16) 
pIC50

>  <activity_comment>  (16) 
None

$$$$

     RDKit          

 27 31  0  0  0  0  0  0  0  0999 V2000
    0.0000    0.0000    0.0000 C   0  0  0  0  0  0  0  0  0  0  0  0
    0.0000    0.0000    0.0000 C   0  0  0  0  0  0  0  0  0  0  0  0
    0.0000    0.0000    0.0000 C   0  0  0  0  0  0  0  0  0  0  0  0
    0.0000    0.0000    0.0000 C   0  0  0  0  0  0  0  0  0  0  0  0
    0.0000    0.0000    0.0000 C   0  0  0  0  0  0  0  0  0  0  0  0
    0.0000    0.0000    0.0000 N   0  0  0  0  0  0  0  0  0  0  0  0
    0.0000    0.0000    0.0000 C   0  0  0  0  0  0  0  0  0  0  0  0
    0.0000    0.0000    0.0000 C   0  0  0  0  0  0  0  0  0  0  0  0
    0.0000    0.0000    0.0000 C   0  0  0  0  0  0  0  0  0  0  0  0
    0.0000    0.0000    0.0000 O   0  0  0  0  0  0  0  0  0  0  0  0
    0.0000    0.0000    0.0000 C   0  0  0  0  0  0  0  0  0  0  0  0
    0.0000    0.0000    0.0000 C   0  0  0  0  0  0  0  0  0  0  0  0
    0.0000    0.0000    0.0000 C   0  0  0  0  0  0  0  0  0  0  0  0
    0.0000    0.0000    0.0000 C   0  0  0  0  0  0  0  0  0  0  0  0
    0.0000    0.0000    0.0000 C   0  0  0  0  0  0  0  0  0  0  0  0
    0.0000    0.0000    0.0000 C   0  0  0  0  0  0  0  0  0  0  0  0
    0.0000    0.0000    0.0000 C   0  0  0  0  0  0  0  0  0  0  0  0
    0.0000    0.0000    0.0000 C   0  0  0  0  0  0  0  0  0  0  0  0
    0.0000    0.0000    0.0000 C   0  0  0  0  0  0  0  0  0  0  0  0
    0.0000    0.0000    0.0000 O   0  0  0  0  0  0  0  0  0  0  0  0
    0.0000    0.0000    0.0000 N   0  0  0  0  0  0  0  0  0  0  0  0
    0.0000    0.0000    0.0000 C   0  0  0  0  0  0  0  0  0  0  0  0
    0.0000    0.0000    0.0000 C   0  0  0  0  0  0  0  0  0  0  0  0
    0.0000    0.0000    0.0000 C   0  0  0  0  0  0  0  0  0  0  0  0
    0.0000    0.0000    0.0000 C   0  0  0  0  0  0  0  0  0  0  0  0
    0.0000    0.0000    0.0000 C   0  0  0  0  0  0  0  0  0  0  0  0
    0.0000    0.0000    0.0000 N   0  0  0  0  0  0  0  0  0  0  0  0
  1  2  1  0
  2  3  2  0
  3  4  1  0
  4  5  1  0
  5  6  1  0
  6  7  1  0
  7  8  1  0
  8  9  1  0
  9 10  1  0
 10 11  1  0
 11 12  2  0
 12 13  1  0
 13 14  2  0
 14 15  1  0
 15 16  2  0
 16 17  1  0
 17 18  1  0
  3 19  1  0
 19 20  2  0
 19 21  1  0
 21 22  1  0
 22 23  2  0
 23 24  1  0
 24 25  2  0
 25 26  1  0
 26 27  2  0
 27  2  1  0
 18  6  1  0
 17  9  2  0
 16 11  1  0
 26 21  1  0
M  END
>  <pIC50>  (17) 
9.26

>  <ChEMBL_ID>  (17) 
CHEMBL162501

>  <document_journal>  (17) 
Bioorg. Med. Chem. Lett.

>  <bao_endpoint>  (17) 
BAO_0000190

>  <potential_duplicate>  (17) 
False

>  <uo_units>  (17) 
UO_0000065

>  <canonical_smiles>  (17) 
CC1=C(CCN2CCc3oc4ccccc4c3C2)C(=O)N5C=CC=CC5=N1

>  <parent_molecule_chembl_id>  (17) 
CHEMBL162501

>  <assay_type>  (17) 
B

>  <src_id>  (17) 
1

>  <ligand_efficiency>  (17) 
{u'le': u'0.47', u'bei': u'25.76', u'sei': u'18.88', u'lle': u'6.66'}

>  <standard_flag>  (17) 
True

>  <molecule_chembl_id>  (17) 
CHEMBL162501

>  <target_organism>  (17) 
Homo sapiens

>  <standard_units>  (17) 
nM

>  <record_id>  (17) 
320871

>  <document_chembl_id>  (17) 
CHEMBL1132860

>  <bao_format>  (17) 
BAO_0000219

>  <data_validity_description>  (17) 
None

>  <activity_id>  (17) 
966479

>  <standard_type>  (17) 
IC50

>  <target_chembl_id>  (17) 
CHEMBL1867

>  <data_validity_comment>  (17) 
None

>  <published_value>  (17) 
9.26

>  <document_year>  (17) 
2000

>  <target_pref_name>  (17) 
Alpha-2a adrenergic receptor

>  <assay_chembl_id>  (17) 
CHEMBL640335

>  <standard_relation>  (17) 
=

>  <assay_description>  (17) 
Binding affinity at human Alpha-2A adrenergic receptor in CHO cells by [3H]rauwolscine (1 nM) displacement.

>  <published_relation>  (17) 
=

>  <standard_value>  (17) 
0.5495

>  <qudt_units>  (17) 
http://www.openphacts.org/units/Nanomolar

>  <target_tax_id>  (17) 
9606

>  <bao_label>  (17) 
cell-based format

>  <published_units>  (17) 
None

>  <pchembl_value>  (17) 
9.26

>  <published_type>  (17) 
pIC50

>  <activity_comment>  (17) 
None

$$$$

     RDKit          

 28 32  0  0  0  0  0  0  0  0999 V2000
    0.0000    0.0000    0.0000 C   0  0  0  0  0  0  0  0  0  0  0  0
    0.0000    0.0000    0.0000 C   0  0  0  0  0  0  0  0  0  0  0  0
    0.0000    0.0000    0.0000 C   0  0  0  0  0  0  0  0  0  0  0  0
    0.0000    0.0000    0.0000 C   0  0  0  0  0  0  0  0  0  0  0  0
    0.0000    0.0000    0.0000 C   0  0  0  0  0  0  0  0  0  0  0  0
    0.0000    0.0000    0.0000 C   0  0  0  0  0  0  0  0  0  0  0  0
    0.0000    0.0000    0.0000 N   0  0  0  0  0  0  0  0  0  0  0  0
    0.0000    0.0000    0.0000 C   0  0  0  0  0  0  0  0  0  0  0  0
    0.0000    0.0000    0.0000 C   0  0  0  0  0  0  0  0  0  0  0  0
    0.0000    0.0000    0.0000 C   0  0  0  0  0  0  0  0  0  0  0  0
    0.0000    0.0000    0.0000 O   0  0  0  0  0  0  0  0  0  0  0  0
    0.0000    0.0000    0.0000 C   0  0  0  0  0  0  0  0  0  0  0  0
    0.0000    0.0000    0.0000 C   0  0  0  0  0  0  0  0  0  0  0  0
    0.0000    0.0000    0.0000 C   0  0  0  0  0  0  0  0  0  0  0  0
    0.0000    0.0000    0.0000 C   0  0  0  0  0  0  0  0  0  0  0  0
    0.0000    0.0000    0.0000 C   0  0  0  0  0  0  0  0  0  0  0  0
    0.0000    0.0000    0.0000 C   0  0  0  0  0  0  0  0  0  0  0  0
    0.0000    0.0000    0.0000 C   0  0  0  0  0  0  0  0  0  0  0  0
    0.0000    0.0000    0.0000 C   0  0  0  0  0  0  0  0  0  0  0  0
    0.0000    0.0000    0.0000 C   0  0  0  0  0  0  0  0  0  0  0  0
    0.0000    0.0000    0.0000 O   0  0  0  0  0  0  0  0  0  0  0  0
    0.0000    0.0000    0.0000 N   0  0  0  0  0  0  0  0  0  0  0  0
    0.0000    0.0000    0.0000 C   0  0  0  0  0  0  0  0  0  0  0  0
    0.0000    0.0000    0.0000 C   0  0  0  0  0  0  0  0  0  0  0  0
    0.0000    0.0000    0.0000 C   0  0  0  0  0  0  0  0  0  0  0  0
    0.0000    0.0000    0.0000 C   0  0  0  0  0  0  0  0  0  0  0  0
    0.0000    0.0000    0.0000 C   0  0  0  0  0  0  0  0  0  0  0  0
    0.0000    0.0000    0.0000 N   0  0  0  0  0  0  0  0  0  0  0  0
  1  2  1  0
  2  3  2  0
  3  4  1  0
  4  5  1  0
  5  6  1  0
  6  7  1  0
  7  8  1  0
  8  9  1  0
  9 10  1  0
 10 11  1  0
 11 12  1  0
 12 13  2  0
 13 14  1  0
 14 15  2  0
 15 16  1  0
 16 17  2  0
 17 18  1  0
 18 19  1  0
  3 20  1  0
 20 21  2  0
 20 22  1  0
 22 23  1  0
 23 24  2  0
 24 25  1  0
 25 26  2  0
 26 27  1  0
 27 28  2  0
 28  2  1  0
 19  7  1  0
 18 10  2  0
 17 12  1  0
 27 22  1  0
M  END
>  <pIC50>  (18) 
7.99

>  <ChEMBL_ID>  (18) 
CHEMBL165776

>  <document_journal>  (18) 
Bioorg. Med. Chem. Lett.

>  <bao_endpoint>  (18) 
BAO_0000190

>  <potential_duplicate>  (18) 
False

>  <uo_units>  (18) 
UO_0000065

>  <canonical_smiles>  (18) 
CC1=C(CCCN2CCc3oc4ccccc4c3C2)C(=O)N5C=CC=CC5=N1

>  <parent_molecule_chembl_id>  (18) 
CHEMBL165776

>  <assay_type>  (18) 
B

>  <src_id>  (18) 
1

>  <ligand_efficiency>  (18) 
{u'le': u'0.39', u'bei': u'21.4', u'sei': u'16.29', u'lle': u'4.94'}

>  <standard_flag>  (18) 
True

>  <molecule_chembl_id>  (18) 
CHEMBL165776

>  <target_organism>  (18) 
Homo sapiens

>  <standard_units>  (18) 
nM

>  <record_id>  (18) 
320885

>  <document_chembl_id>  (18) 
CHEMBL1132860

>  <bao_format>  (18) 
BAO_0000219

>  <data_validity_description>  (18) 
None

>  <activity_id>  (18) 
968805

>  <standard_type>  (18) 
IC50

>  <target_chembl_id>  (18) 
CHEMBL1867

>  <data_validity_comment>  (18) 
None

>  <published_value>  (18) 
7.99

>  <document_year>  (18) 
2000

>  <target_pref_name>  (18) 
Alpha-2a adrenergic receptor

>  <assay_chembl_id>  (18) 
CHEMBL640335

>  <standard_relation>  (18) 
=

>  <assay_description>  (18) 
Binding affinity at human Alpha-2A adrenergic receptor in CHO cells by [3H]rauwolscine (1 nM) displacement.

>  <published_relation>  (18) 
=

>  <standard_value>  (18) 
10.23

>  <qudt_units>  (18) 
http://www.openphacts.org/units/Nanomolar

>  <target_tax_id>  (18) 
9606

>  <bao_label>  (18) 
cell-based format

>  <published_units>  (18) 
None

>  <pchembl_value>  (18) 
7.99

>  <published_type>  (18) 
pIC50

>  <activity_comment>  (18) 
None

$$$$

     RDKit          

 28 32  0  0  0  0  0  0  0  0999 V2000
    0.0000    0.0000    0.0000 C   0  0  0  0  0  0  0  0  0  0  0  0
    0.0000    0.0000    0.0000 C   0  0  0  0  0  0  0  0  0  0  0  0
    0.0000    0.0000    0.0000 C   0  0  0  0  0  0  0  0  0  0  0  0
    0.0000    0.0000    0.0000 C   0  0  0  0  0  0  0  0  0  0  0  0
    0.0000    0.0000    0.0000 C   0  0  0  0  0  0  0  0  0  0  0  0
    0.0000    0.0000    0.0000 N   0  0  0  0  0  0  0  0  0  0  0  0
    0.0000    0.0000    0.0000 C   0  0  0  0  0  0  0  0  0  0  0  0
    0.0000    0.0000    0.0000 C   0  0  0  0  0  0  0  0  0  0  0  0
    0.0000    0.0000    0.0000 C   0  0  0  0  0  0  0  0  0  0  0  0
    0.0000    0.0000    0.0000 O   0  0  0  0  0  0  0  0  0  0  0  0
    0.0000    0.0000    0.0000 C   0  0  0  0  0  0  0  0  0  0  0  0
    0.0000    0.0000    0.0000 C   0  0  0  0  0  0  0  0  0  0  0  0
    0.0000    0.0000    0.0000 C   0  0  0  0  0  0  0  0  0  0  0  0
    0.0000    0.0000    0.0000 C   0  0  0  0  0  0  0  0  0  0  0  0
    0.0000    0.0000    0.0000 C   0  0  0  0  0  0  0  0  0  0  0  0
    0.0000    0.0000    0.0000 C   0  0  0  0  0  0  0  0  0  0  0  0
    0.0000    0.0000    0.0000 C   0  0  0  0  0  0  0  0  0  0  0  0
    0.0000    0.0000    0.0000 C   0  0  0  0  0  0  0  0  0  0  0  0
    0.0000    0.0000    0.0000 C   0  0  0  0  0  0  0  0  0  0  0  0
    0.0000    0.0000    0.0000 O   0  0  0  0  0  0  0  0  0  0  0  0
    0.0000    0.0000    0.0000 N   0  0  0  0  0  0  0  0  0  0  0  0
    0.0000    0.0000    0.0000 C   0  0  0  0  0  0  0  0  0  0  0  0
    0.0000    0.0000    0.0000 C   0  0  0  0  0  0  0  0  0  0  0  0
    0.0000    0.0000    0.0000 C   0  0  0  0  0  0  0  0  0  0  0  0
    0.0000    0.0000    0.0000 C   0  0  0  0  0  0  0  0  0  0  0  0
    0.0000    0.0000    0.0000 O   0  0  0  0  0  0  0  0  0  0  0  0
    0.0000    0.0000    0.0000 C   0  0  0  0  0  0  0  0  0  0  0  0
    0.0000    0.0000    0.0000 N   0  0  0  0  0  0  0  0  0  0  0  0
  1  2  1  0
  2  3  2  0
  3  4  1  0
  4  5  1  0
  5  6  1  0
  6  7  1  0
  7  8  1  0
  8  9  1  0
  9 10  1  0
 10 11  1  0
 11 12  2  0
 12 13  1  0
 13 14  2  0
 14 15  1  0
 15 16  2  0
 16 17  1  0
 17 18  1  0
  3 19  1  0
 19 20  2  0
 19 21  1  0
 21 22  1  0
 22 23  2  0
 23 24  1  0
 24 25  2  0
 25 26  1  0
 25 27  1  0
 27 28  2  0
 28  2  1  0
 18  6  1  0
 17  9  2  0
 16 11  1  0
 27 21  1  0
M  END
>  <pIC50>  (19) 
9.16

>  <ChEMBL_ID>  (19) 
CHEMBL162826

>  <document_journal>  (19) 
Bioorg. Med. Chem. Lett.

>  <bao_endpoint>  (19) 
BAO_0000190

>  <potential_duplicate>  (19) 
False

>  <uo_units>  (19) 
UO_0000065

>  <canonical_smiles>  (19) 
CC1=C(CCN2CCc3oc4ccccc4c3C2)C(=O)N5C=CC=C(O)C5=N1

>  <parent_molecule_chembl_id>  (19) 
CHEMBL162826

>  <assay_type>  (19) 
B

>  <src_id>  (19) 
1

>  <ligand_efficiency>  (19) 
{u'le': u'0.45', u'bei': u'24.4', u'sei': u'13.22', u'lle': u'7.1'}

>  <standard_flag>  (19) 
True

>  <molecule_chembl_id>  (19) 
CHEMBL162826

>  <target_organism>  (19) 
Homo sapiens

>  <standard_units>  (19) 
nM

>  <record_id>  (19) 
320879

>  <document_chembl_id>  (19) 
CHEMBL1132860

>  <bao_format>  (19) 
BAO_0000219

>  <data_validity_description>  (19) 
None

>  <activity_id>  (19) 
968811

>  <standard_type>  (19) 
IC50

>  <target_chembl_id>  (19) 
CHEMBL1867

>  <data_validity_comment>  (19) 
None

>  <published_value>  (19) 
9.16

>  <document_year>  (19) 
2000

>  <target_pref_name>  (19) 
Alpha-2a adrenergic receptor

>  <assay_chembl_id>  (19) 
CHEMBL640335

>  <standard_relation>  (19) 
=

>  <assay_description>  (19) 
Binding affinity at human Alpha-2A adrenergic receptor in CHO cells by [3H]rauwolscine (1 nM) displacement.

>  <published_relation>  (19) 
=

>  <standard_value>  (19) 
0.6918

>  <qudt_units>  (19) 
http://www.openphacts.org/units/Nanomolar

>  <target_tax_id>  (19) 
9606

>  <bao_label>  (19) 
cell-based format

>  <published_units>  (19) 
None

>  <pchembl_value>  (19) 
9.16

>  <published_type>  (19) 
pIC50

>  <activity_comment>  (19) 
None

$$$$

     RDKit          

 15 17  0  0  0  0  0  0  0  0999 V2000
    0.0000    0.0000    0.0000 C   0  0  0  0  0  0  0  0  0  0  0  0
    0.0000    0.0000    0.0000 C   0  0  0  0  0  0  0  0  0  0  0  0
    0.0000    0.0000    0.0000 N   0  0  0  0  0  0  0  0  0  0  0  0
    0.0000    0.0000    0.0000 C   0  0  0  0  0  0  0  0  0  0  0  0
    0.0000    0.0000    0.0000 N   0  0  0  0  0  0  0  0  0  0  0  0
    0.0000    0.0000    0.0000 C   0  0  0  0  0  0  0  0  0  0  0  0
    0.0000    0.0000    0.0000 C   0  0  0  0  0  0  0  0  0  0  0  0
    0.0000    0.0000    0.0000 O   0  0  0  0  0  0  0  0  0  0  0  0
    0.0000    0.0000    0.0000 C   0  0  0  0  0  0  0  0  0  0  0  0
    0.0000    0.0000    0.0000 C   0  0  0  0  0  0  0  0  0  0  0  0
    0.0000    0.0000    0.0000 C   0  0  0  0  0  0  0  0  0  0  0  0
    0.0000    0.0000    0.0000 C   0  0  0  0  0  0  0  0  0  0  0  0
    0.0000    0.0000    0.0000 C   0  0  0  0  0  0  0  0  0  0  0  0
    0.0000    0.0000    0.0000 C   0  0  0  0  0  0  0  0  0  0  0  0
    0.0000    0.0000    0.0000 O   0  0  0  0  0  0  0  0  0  0  0  0
  1  2  1  0
  2  3  1  0
  3  4  2  0
  4  5  1  0
  4  6  1  0
  6  7  1  0
  7  8  1  0
  8  9  1  0
  9 10  2  0
 10 11  1  0
 11 12  2  0
 12 13  1  0
 13 14  2  0
 14 15  1  0
  5  1  1  0
 15  6  1  0
 14  9  1  0
M  END
>  <pIC50>  (20) 
8.08

>  <ChEMBL_ID>  (20) 
CHEMBL10316

>  <document_journal>  (20) 
Bioorg. Med. Chem. Lett.

>  <bao_endpoint>  (20) 
BAO_0000190

>  <potential_duplicate>  (20) 
False

>  <uo_units>  (20) 
UO_0000065

>  <canonical_smiles>  (20) 
C1CN=C(N1)C2COc3ccccc3O2

>  <parent_molecule_chembl_id>  (20) 
CHEMBL10316

>  <assay_type>  (20) 
B

>  <src_id>  (20) 
1

>  <ligand_efficiency>  (20) 
{u'le': u'0.74', u'bei': u'39.56', u'sei': u'18.86', u'lle': u'7.19'}

>  <standard_flag>  (20) 
True

>  <molecule_chembl_id>  (20) 
CHEMBL10316

>  <target_organism>  (20) 
Homo sapiens

>  <standard_units>  (20) 
nM

>  <record_id>  (20) 
320883

>  <document_chembl_id>  (20) 
CHEMBL1132860

>  <bao_format>  (20) 
BAO_0000219

>  <data_validity_description>  (20) 
None

>  <activity_id>  (20) 
968817

>  <standard_type>  (20) 
IC50

>  <target_chembl_id>  (20) 
CHEMBL1867

>  <data_validity_comment>  (20) 
None

>  <published_value>  (20) 
8.08

>  <document_year>  (20) 
2000

>  <target_pref_name>  (20) 
Alpha-2a adrenergic receptor

>  <assay_chembl_id>  (20) 
CHEMBL640335

>  <standard_relation>  (20) 
=

>  <assay_description>  (20) 
Binding affinity at human Alpha-2A adrenergic receptor in CHO cells by [3H]rauwolscine (1 nM) displacement.

>  <published_relation>  (20) 
=

>  <standard_value>  (20) 
8.318

>  <qudt_units>  (20) 
http://www.openphacts.org/units/Nanomolar

>  <target_tax_id>  (20) 
9606

>  <bao_label>  (20) 
cell-based format

>  <published_units>  (20) 
None

>  <pchembl_value>  (20) 
8.08

>  <published_type>  (20) 
pIC50

>  <activity_comment>  (20) 
None

$$$$

     RDKit          

 29 33  0  0  0  0  0  0  0  0999 V2000
    0.0000    0.0000    0.0000 C   0  0  0  0  0  0  0  0  0  0  0  0
    0.0000    0.0000    0.0000 C   0  0  0  0  0  0  0  0  0  0  0  0
    0.0000    0.0000    0.0000 C   0  0  0  0  0  0  0  0  0  0  0  0
    0.0000    0.0000    0.0000 C   0  0  0  0  0  0  0  0  0  0  0  0
    0.0000    0.0000    0.0000 C   0  0  0  0  0  0  0  0  0  0  0  0
    0.0000    0.0000    0.0000 N   0  0  0  0  0  0  0  0  0  0  0  0
    0.0000    0.0000    0.0000 C   0  0  0  0  0  0  0  0  0  0  0  0
    0.0000    0.0000    0.0000 C   0  0  0  0  0  0  0  0  0  0  0  0
    0.0000    0.0000    0.0000 C   0  0  0  0  0  0  0  0  0  0  0  0
    0.0000    0.0000    0.0000 O   0  0  0  0  0  0  0  0  0  0  0  0
    0.0000    0.0000    0.0000 C   0  0  0  0  0  0  0  0  0  0  0  0
    0.0000    0.0000    0.0000 C   0  0  0  0  0  0  0  0  0  0  0  0
    0.0000    0.0000    0.0000 C   0  0  0  0  0  0  0  0  0  0  0  0
    0.0000    0.0000    0.0000 C   0  0  0  0  0  0  0  0  0  0  0  0
    0.0000    0.0000    0.0000 C   0  0  0  0  0  0  0  0  0  0  0  0
    0.0000    0.0000    0.0000 C   0  0  0  0  0  0  0  0  0  0  0  0
    0.0000    0.0000    0.0000 C   0  0  0  0  0  0  0  0  0  0  0  0
    0.0000    0.0000    0.0000 C   0  0  0  0  0  0  0  0  0  0  0  0
    0.0000    0.0000    0.0000 C   0  0  0  0  0  0  0  0  0  0  0  0
    0.0000    0.0000    0.0000 O   0  0  0  0  0  0  0  0  0  0  0  0
    0.0000    0.0000    0.0000 N   0  0  0  0  0  0  0  0  0  0  0  0
    0.0000    0.0000    0.0000 C   0  0  0  0  0  0  0  0  0  0  0  0
    0.0000    0.0000    0.0000 C   0  0  0  0  0  0  0  0  0  0  0  0
    0.0000    0.0000    0.0000 Cl  0  0  0  0  0  0  0  0  0  0  0  0
    0.0000    0.0000    0.0000 C   0  0  0  0  0  0  0  0  0  0  0  0
    0.0000    0.0000    0.0000 C   0  0  0  0  0  0  0  0  0  0  0  0
    0.0000    0.0000    0.0000 Cl  0  0  0  0  0  0  0  0  0  0  0  0
    0.0000    0.0000    0.0000 C   0  0  0  0  0  0  0  0  0  0  0  0
    0.0000    0.0000    0.0000 N   0  0  0  0  0  0  0  0  0  0  0  0
  1  2  1  0
  2  3  2  0
  3  4  1  0
  4  5  1  0
  5  6  1  0
  6  7  1  0
  7  8  1  0
  8  9  1  0
  9 10  1  0
 10 11  1  0
 11 12  2  0
 12 13  1  0
 13 14  2  0
 14 15  1  0
 15 16  2  0
 16 17  1  0
 17 18  1  0
  3 19  1  0
 19 20  2  0
 19 21  1  0
 21 22  1  0
 22 23  2  0
 23 24  1  0
 23 25  1  0
 25 26  2  0
 26 27  1  0
 26 28  1  0
 28 29  2  0
 29  2  1  0
 18  6  1  0
 17  9  2  0
 16 11  1  0
 28 21  1  0
M  END
>  <pIC50>  (21) 
9.23

>  <ChEMBL_ID>  (21) 
CHEMBL163247

>  <document_journal>  (21) 
Bioorg. Med. Chem. Lett.

>  <bao_endpoint>  (21) 
BAO_0000190

>  <potential_duplicate>  (21) 
False

>  <uo_units>  (21) 
UO_0000065

>  <canonical_smiles>  (21) 
CC1=C(CCN2CCc3oc4ccccc4c3C2)C(=O)N5C=C(Cl)C=C(Cl)C5=N1

>  <parent_molecule_chembl_id>  (21) 
CHEMBL163247

>  <assay_type>  (21) 
B

>  <src_id>  (21) 
1

>  <ligand_efficiency>  (21) 
{u'le': u'0.43', u'bei': u'21.55', u'sei': u'18.82', u'lle': u'5.9'}

>  <standard_flag>  (21) 
True

>  <molecule_chembl_id>  (21) 
CHEMBL163247

>  <target_organism>  (21) 
Homo sapiens

>  <standard_units>  (21) 
nM

>  <record_id>  (21) 
320874

>  <document_chembl_id>  (21) 
CHEMBL1132860

>  <bao_format>  (21) 
BAO_0000219

>  <data_validity_description>  (21) 
None

>  <activity_id>  (21) 
970019

>  <standard_type>  (21) 
IC50

>  <target_chembl_id>  (21) 
CHEMBL1867

>  <data_validity_comment>  (21) 
None

>  <published_value>  (21) 
9.23

>  <document_year>  (21) 
2000

>  <target_pref_name>  (21) 
Alpha-2a adrenergic receptor

>  <assay_chembl_id>  (21) 
CHEMBL640335

>  <standard_relation>  (21) 
=

>  <assay_description>  (21) 
Binding affinity at human Alpha-2A adrenergic receptor in CHO cells by [3H]rauwolscine (1 nM) displacement.

>  <published_relation>  (21) 
=

>  <standard_value>  (21) 
0.5888

>  <qudt_units>  (21) 
http://www.openphacts.org/units/Nanomolar

>  <target_tax_id>  (21) 
9606

>  <bao_label>  (21) 
cell-based format

>  <published_units>  (21) 
None

>  <pchembl_value>  (21) 
9.23

>  <published_type>  (21) 
pIC50

>  <activity_comment>  (21) 
None

$$$$

     RDKit          

 29 33  0  0  0  0  0  0  0  0999 V2000
    0.0000    0.0000    0.0000 C   0  0  0  0  0  0  0  0  0  0  0  0
    0.0000    0.0000    0.0000 C   0  0  0  0  0  0  0  0  0  0  0  0
    0.0000    0.0000    0.0000 C   0  0  0  0  0  0  0  0  0  0  0  0
    0.0000    0.0000    0.0000 C   0  0  0  0  0  0  0  0  0  0  0  0
    0.0000    0.0000    0.0000 N   0  0  0  0  0  0  0  0  0  0  0  0
    0.0000    0.0000    0.0000 C   0  0  0  0  0  0  0  0  0  0  0  0
    0.0000    0.0000    0.0000 C   0  0  0  0  0  0  0  0  0  0  0  0
    0.0000    0.0000    0.0000 C   0  0  0  0  0  0  0  0  0  0  0  0
    0.0000    0.0000    0.0000 C   0  0  0  0  0  0  0  0  0  0  0  0
    0.0000    0.0000    0.0000 N   0  0  0  0  0  0  0  0  0  0  0  0
    0.0000    0.0000    0.0000 C   0  0  0  0  0  0  0  0  0  0  0  0
    0.0000    0.0000    0.0000 C   0  0  0  0  0  0  0  0  0  0  0  0
    0.0000    0.0000    0.0000 C   0  0  0  0  0  0  0  0  0  0  0  0
    0.0000    0.0000    0.0000 O   0  0  0  0  0  0  0  0  0  0  0  0
    0.0000    0.0000    0.0000 C   0  0  0  0  0  0  0  0  0  0  0  0
    0.0000    0.0000    0.0000 C   0  0  0  0  0  0  0  0  0  0  0  0
    0.0000    0.0000    0.0000 C   0  0  0  0  0  0  0  0  0  0  0  0
    0.0000    0.0000    0.0000 C   0  0  0  0  0  0  0  0  0  0  0  0
    0.0000    0.0000    0.0000 C   0  0  0  0  0  0  0  0  0  0  0  0
    0.0000    0.0000    0.0000 C   0  0  0  0  0  0  0  0  0  0  0  0
    0.0000    0.0000    0.0000 C   0  0  0  0  0  0  0  0  0  0  0  0
    0.0000    0.0000    0.0000 C   0  0  0  0  0  0  0  0  0  0  0  0
    0.0000    0.0000    0.0000 C   0  0  0  0  0  0  0  0  0  0  0  0
    0.0000    0.0000    0.0000 O   0  0  0  0  0  0  0  0  0  0  0  0
    0.0000    0.0000    0.0000 N   0  0  0  0  0  0  0  0  0  0  0  0
    0.0000    0.0000    0.0000 C   0  0  0  0  0  0  0  0  0  0  0  0
    0.0000    0.0000    0.0000 C   0  0  0  0  0  0  0  0  0  0  0  0
    0.0000    0.0000    0.0000 C   0  0  0  0  0  0  0  0  0  0  0  0
    0.0000    0.0000    0.0000 C   0  0  0  0  0  0  0  0  0  0  0  0
  1  2  1  0
  2  3  2  0
  3  4  1  0
  4  5  2  0
  5  6  1  0
  6  7  2  0
  7  8  1  0
  8  9  1  0
  9 10  1  0
 10 11  1  0
 11 12  1  0
 12 13  1  0
 13 14  1  0
 14 15  1  0
 15 16  2  0
 16 17  1  0
 17 18  2  0
 18 19  1  0
 19 20  2  0
 20 21  1  0
 21 22  1  0
  7 23  1  0
 23 24  2  0
 23 25  1  0
 25 26  1  0
 26 27  2  0
 26 28  1  0
  6 29  1  0
 27  2  1  0
 25  4  1  0
 22 10  1  0
 21 13  2  0
 20 15  1  0
M  END
>  <pIC50>  (22) 
9.47

>  <ChEMBL_ID>  (22) 
CHEMBL162232

>  <document_journal>  (22) 
Bioorg. Med. Chem. Lett.

>  <bao_endpoint>  (22) 
BAO_0000190

>  <potential_duplicate>  (22) 
False

>  <uo_units>  (22) 
UO_0000065

>  <canonical_smiles>  (22) 
CC1=CC2=NC(=C(CCN3CCc4oc5ccccc5c4C3)C(=O)N2C(=C1)C)C

>  <parent_molecule_chembl_id>  (22) 
CHEMBL162232

>  <assay_type>  (22) 
B

>  <src_id>  (22) 
1

>  <ligand_efficiency>  (22) 
{u'le': u'0.45', u'bei': u'24.44', u'sei': u'19.31', u'lle': u'5.91'}

>  <standard_flag>  (22) 
True

>  <molecule_chembl_id>  (22) 
CHEMBL162232

>  <target_organism>  (22) 
Homo sapiens

>  <standard_units>  (22) 
nM

>  <record_id>  (22) 
320877

>  <document_chembl_id>  (22) 
CHEMBL1132860

>  <bao_format>  (22) 
BAO_0000219

>  <data_validity_description>  (22) 
None

>  <activity_id>  (22) 
972672

>  <standard_type>  (22) 
IC50

>  <target_chembl_id>  (22) 
CHEMBL1867

>  <data_validity_comment>  (22) 
None

>  <published_value>  (22) 
9.47

>  <document_year>  (22) 
2000

>  <target_pref_name>  (22) 
Alpha-2a adrenergic receptor

>  <assay_chembl_id>  (22) 
CHEMBL640335

>  <standard_relation>  (22) 
=

>  <assay_description>  (22) 
Binding affinity at human Alpha-2A adrenergic receptor in CHO cells by [3H]rauwolscine (1 nM) displacement.

>  <published_relation>  (22) 
=

>  <standard_value>  (22) 
0.3388

>  <qudt_units>  (22) 
http://www.openphacts.org/units/Nanomolar

>  <target_tax_id>  (22) 
9606

>  <bao_label>  (22) 
cell-based format

>  <published_units>  (22) 
None

>  <pchembl_value>  (22) 
9.47

>  <published_type>  (22) 
pIC50

>  <activity_comment>  (22) 
None

$$$$

     RDKit          

 28 32  0  0  0  0  0  0  0  0999 V2000
    0.0000    0.0000    0.0000 C   0  0  0  0  0  0  0  0  0  0  0  0
    0.0000    0.0000    0.0000 C   0  0  0  0  0  0  0  0  0  0  0  0
    0.0000    0.0000    0.0000 C   0  0  0  0  0  0  0  0  0  0  0  0
    0.0000    0.0000    0.0000 C   0  0  0  0  0  0  0  0  0  0  0  0
    0.0000    0.0000    0.0000 C   0  0  0  0  0  0  0  0  0  0  0  0
    0.0000    0.0000    0.0000 N   0  0  0  0  0  0  0  0  0  0  0  0
    0.0000    0.0000    0.0000 C   0  0  0  0  0  0  0  0  0  0  0  0
    0.0000    0.0000    0.0000 O   0  0  0  0  0  0  0  0  0  0  0  0
    0.0000    0.0000    0.0000 C   0  0  0  0  0  0  0  0  0  0  0  0
    0.0000    0.0000    0.0000 C   0  0  0  0  0  0  0  0  0  0  0  0
    0.0000    0.0000    0.0000 C   0  0  0  0  0  0  0  0  0  0  0  0
    0.0000    0.0000    0.0000 N   0  0  0  0  0  0  0  0  0  0  0  0
    0.0000    0.0000    0.0000 C   0  0  0  0  0  0  0  0  0  0  0  0
    0.0000    0.0000    0.0000 C   0  0  0  0  0  0  0  0  0  0  0  0
    0.0000    0.0000    0.0000 C   0  0  0  0  0  0  0  0  0  0  0  0
    0.0000    0.0000    0.0000 N   0  0  0  0  0  0  0  0  0  0  0  0
    0.0000    0.0000    0.0000 C   0  0  0  0  0  0  0  0  0  0  0  0
    0.0000    0.0000    0.0000 C   0  0  0  0  0  0  0  0  0  0  0  0
    0.0000    0.0000    0.0000 C   0  0  0  0  0  0  0  0  0  0  0  0
    0.0000    0.0000    0.0000 O   0  0  0  0  0  0  0  0  0  0  0  0
    0.0000    0.0000    0.0000 C   0  0  0  0  0  0  0  0  0  0  0  0
    0.0000    0.0000    0.0000 C   0  0  0  0  0  0  0  0  0  0  0  0
    0.0000    0.0000    0.0000 C   0  0  0  0  0  0  0  0  0  0  0  0
    0.0000    0.0000    0.0000 C   0  0  0  0  0  0  0  0  0  0  0  0
    0.0000    0.0000    0.0000 C   0  0  0  0  0  0  0  0  0  0  0  0
    0.0000    0.0000    0.0000 C   0  0  0  0  0  0  0  0  0  0  0  0
    0.0000    0.0000    0.0000 C   0  0  0  0  0  0  0  0  0  0  0  0
    0.0000    0.0000    0.0000 C   0  0  0  0  0  0  0  0  0  0  0  0
  1  2  1  0
  2  3  2  0
  3  4  1  0
  4  5  2  0
  5  6  1  0
  6  7  1  0
  7  8  2  0
  7  9  1  0
  9 10  2  0
 10 11  1  0
 10 12  1  0
 12 13  2  0
  9 14  1  0
 14 15  1  0
 15 16  1  0
 16 17  1  0
 17 18  1  0
 18 19  1  0
 19 20  1  0
 20 21  1  0
 21 22  2  0
 22 23  1  0
 23 24  2  0
 24 25  1  0
 25 26  2  0
 26 27  1  0
 27 28  1  0
 13  2  1  0
 13  6  1  0
 28 16  1  0
 27 19  2  0
 26 21  1  0
M  END
>  <pIC50>  (23) 
9.22

>  <ChEMBL_ID>  (23) 
CHEMBL351200

>  <document_journal>  (23) 
Bioorg. Med. Chem. Lett.

>  <bao_endpoint>  (23) 
BAO_0000190

>  <potential_duplicate>  (23) 
False

>  <uo_units>  (23) 
UO_0000065

>  <canonical_smiles>  (23) 
CC1=CC=CN2C(=O)C(=C(C)N=C12)CCN3CCc4oc5ccccc5c4C3

>  <parent_molecule_chembl_id>  (23) 
CHEMBL351200

>  <assay_type>  (23) 
B

>  <src_id>  (23) 
1

>  <ligand_efficiency>  (23) 
{u'le': u'0.45', u'bei': u'24.69', u'sei': u'18.8', u'lle': u'6.18'}

>  <standard_flag>  (23) 
True

>  <molecule_chembl_id>  (23) 
CHEMBL351200

>  <target_organism>  (23) 
Homo sapiens

>  <standard_units>  (23) 
nM

>  <record_id>  (23) 
320888

>  <document_chembl_id>  (23) 
CHEMBL1132860

>  <bao_format>  (23) 
BAO_0000219

>  <data_validity_description>  (23) 
None

>  <activity_id>  (23) 
976375

>  <standard_type>  (23) 
IC50

>  <target_chembl_id>  (23) 
CHEMBL1867

>  <data_validity_comment>  (23) 
None

>  <published_value>  (23) 
9.22

>  <document_year>  (23) 
2000

>  <target_pref_name>  (23) 
Alpha-2a adrenergic receptor

>  <assay_chembl_id>  (23) 
CHEMBL640335

>  <standard_relation>  (23) 
=

>  <assay_description>  (23) 
Binding affinity at human Alpha-2A adrenergic receptor in CHO cells by [3H]rauwolscine (1 nM) displacement.

>  <published_relation>  (23) 
=

>  <standard_value>  (23) 
0.6026

>  <qudt_units>  (23) 
http://www.openphacts.org/units/Nanomolar

>  <target_tax_id>  (23) 
9606

>  <bao_label>  (23) 
cell-based format

>  <published_units>  (23) 
None

>  <pchembl_value>  (23) 
9.22

>  <published_type>  (23) 
pIC50

>  <activity_comment>  (23) 
None

$$$$

     RDKit          

 32 36  0  0  0  0  0  0  0  0999 V2000
    0.0000    0.0000    0.0000 C   0  0  0  0  0  0  0  0  0  0  0  0
    0.0000    0.0000    0.0000 C   0  0  0  0  0  0  0  0  0  0  0  0
    0.0000    0.0000    0.0000 C   0  0  0  0  0  0  0  0  0  0  0  0
    0.0000    0.0000    0.0000 C   0  0  0  0  0  0  0  0  0  0  0  0
    0.0000    0.0000    0.0000 C   0  0  0  0  0  0  0  0  0  0  0  0
    0.0000    0.0000    0.0000 N   0  0  0  0  0  0  0  0  0  0  0  0
    0.0000    0.0000    0.0000 C   0  0  0  0  0  0  0  0  0  0  0  0
    0.0000    0.0000    0.0000 C   0  0  0  0  0  0  0  0  0  0  0  0
    0.0000    0.0000    0.0000 C   0  0  0  0  0  0  0  0  0  0  0  0
    0.0000    0.0000    0.0000 O   0  0  0  0  0  0  0  0  0  0  0  0
    0.0000    0.0000    0.0000 C   0  0  0  0  0  0  0  0  0  0  0  0
    0.0000    0.0000    0.0000 C   0  0  0  0  0  0  0  0  0  0  0  0
    0.0000    0.0000    0.0000 C   0  0  0  0  0  0  0  0  0  0  0  0
    0.0000    0.0000    0.0000 C   0  0  0  0  0  0  0  0  0  0  0  0
    0.0000    0.0000    0.0000 C   0  0  0  0  0  0  0  0  0  0  0  0
    0.0000    0.0000    0.0000 C   0  0  0  0  0  0  0  0  0  0  0  0
    0.0000    0.0000    0.0000 C   0  0  0  0  0  0  0  0  0  0  0  0
    0.0000    0.0000    0.0000 C   0  0  0  0  0  0  0  0  0  0  0  0
    0.0000    0.0000    0.0000 C   0  0  0  0  0  0  0  0  0  0  0  0
    0.0000    0.0000    0.0000 O   0  0  0  0  0  0  0  0  0  0  0  0
    0.0000    0.0000    0.0000 N   0  0  0  0  0  0  0  0  0  0  0  0
    0.0000    0.0000    0.0000 C   0  0  0  0  0  0  0  0  0  0  0  0
    0.0000    0.0000    0.0000 C   0  0  0  0  0  0  0  0  0  0  0  0
    0.0000    0.0000    0.0000 C   0  0  0  0  0  0  0  0  0  0  0  0
    0.0000    0.0000    0.0000 C   0  0  0  0  0  0  0  0  0  0  0  0
    0.0000    0.0000    0.0000 Cl  0  0  0  0  0  0  0  0  0  0  0  0
    0.0000    0.0000    0.0000 C   0  0  0  0  0  0  0  0  0  0  0  0
    0.0000    0.0000    0.0000 N   0  0  0  0  0  0  0  0  0  0  0  0
    0.0000    0.0000    0.0000 C   0  0  0  0  0  0  0  0  0  0  0  0
    0.0000    0.0000    0.0000 F   0  0  0  0  0  0  0  0  0  0  0  0
    0.0000    0.0000    0.0000 F   0  0  0  0  0  0  0  0  0  0  0  0
    0.0000    0.0000    0.0000 F   0  0  0  0  0  0  0  0  0  0  0  0
  1  2  1  0
  2  3  2  0
  3  4  1  0
  4  5  1  0
  5  6  1  0
  6  7  1  0
  7  8  1  0
  8  9  1  0
  9 10  1  0
 10 11  1  0
 11 12  2  0
 12 13  1  0
 13 14  2  0
 14 15  1  0
 15 16  2  0
 16 17  1  0
 17 18  1  0
  3 19  1  0
 19 20  2  0
 19 21  1  0
 21 22  1  0
 22 23  2  0
 23 24  1  0
 24 25  2  0
 25 26  1  0
 25 27  1  0
 27 28  2  0
 23 29  1  0
 29 30  1  0
 29 31  1  0
 29 32  1  0
 28  2  1  0
 18  6  1  0
 17  9  2  0
 16 11  1  0
 27 21  1  0
M  END
>  <pIC50>  (24) 
8.93

>  <ChEMBL_ID>  (24) 
CHEMBL162147

>  <document_journal>  (24) 
Bioorg. Med. Chem. Lett.

>  <bao_endpoint>  (24) 
BAO_0000190

>  <potential_duplicate>  (24) 
False

>  <uo_units>  (24) 
UO_0000065

>  <canonical_smiles>  (24) 
CC1=C(CCN2CCc3oc4ccccc4c3C2)C(=O)N5C=C(C=C(Cl)C5=N1)C(F)(F)F

>  <parent_molecule_chembl_id>  (24) 
CHEMBL162147

>  <assay_type>  (24) 
B

>  <src_id>  (24) 
1

>  <ligand_efficiency>  (24) 
{u'le': u'0.38', u'bei': u'19.33', u'sei': u'18.21', u'lle': u'5.06'}

>  <standard_flag>  (24) 
True

>  <molecule_chembl_id>  (24) 
CHEMBL162147

>  <target_organism>  (24) 
Homo sapiens

>  <standard_units>  (24) 
nM

>  <record_id>  (24) 
320876

>  <document_chembl_id>  (24) 
CHEMBL1132860

>  <bao_format>  (24) 
BAO_0000219

>  <data_validity_description>  (24) 
None

>  <activity_id>  (24) 
977588

>  <standard_type>  (24) 
IC50

>  <target_chembl_id>  (24) 
CHEMBL1867

>  <data_validity_comment>  (24) 
None

>  <published_value>  (24) 
8.93

>  <document_year>  (24) 
2000

>  <target_pref_name>  (24) 
Alpha-2a adrenergic receptor

>  <assay_chembl_id>  (24) 
CHEMBL640335

>  <standard_relation>  (24) 
=

>  <assay_description>  (24) 
Binding affinity at human Alpha-2A adrenergic receptor in CHO cells by [3H]rauwolscine (1 nM) displacement.

>  <published_relation>  (24) 
=

>  <standard_value>  (24) 
1.175

>  <qudt_units>  (24) 
http://www.openphacts.org/units/Nanomolar

>  <target_tax_id>  (24) 
9606

>  <bao_label>  (24) 
cell-based format

>  <published_units>  (24) 
None

>  <pchembl_value>  (24) 
8.93

>  <published_type>  (24) 
pIC50

>  <activity_comment>  (24) 
None

$$$$

     RDKit          

 28 32  0  0  0  0  0  0  0  0999 V2000
    0.0000    0.0000    0.0000 C   0  0  0  0  0  0  0  0  0  0  0  0
    0.0000    0.0000    0.0000 C   0  0  0  0  0  0  0  0  0  0  0  0
    0.0000    0.0000    0.0000 C   0  0  0  0  0  0  0  0  0  0  0  0
    0.0000    0.0000    0.0000 C   0  0  0  0  0  0  0  0  0  0  0  0
    0.0000    0.0000    0.0000 C   0  0  0  0  0  0  0  0  0  0  0  0
    0.0000    0.0000    0.0000 N   0  0  0  0  0  0  0  0  0  0  0  0
    0.0000    0.0000    0.0000 C   0  0  0  0  0  0  0  0  0  0  0  0
    0.0000    0.0000    0.0000 C   0  0  0  0  0  0  0  0  0  0  0  0
    0.0000    0.0000    0.0000 C   0  0  0  0  0  0  0  0  0  0  0  0
    0.0000    0.0000    0.0000 O   0  0  0  0  0  0  0  0  0  0  0  0
    0.0000    0.0000    0.0000 C   0  0  0  0  0  0  0  0  0  0  0  0
    0.0000    0.0000    0.0000 C   0  0  0  0  0  0  0  0  0  0  0  0
    0.0000    0.0000    0.0000 C   0  0  0  0  0  0  0  0  0  0  0  0
    0.0000    0.0000    0.0000 C   0  0  0  0  0  0  0  0  0  0  0  0
    0.0000    0.0000    0.0000 C   0  0  0  0  0  0  0  0  0  0  0  0
    0.0000    0.0000    0.0000 C   0  0  0  0  0  0  0  0  0  0  0  0
    0.0000    0.0000    0.0000 C   0  0  0  0  0  0  0  0  0  0  0  0
    0.0000    0.0000    0.0000 C   0  0  0  0  0  0  0  0  0  0  0  0
    0.0000    0.0000    0.0000 C   0  0  0  0  0  0  0  0  0  0  0  0
    0.0000    0.0000    0.0000 O   0  0  0  0  0  0  0  0  0  0  0  0
    0.0000    0.0000    0.0000 N   0  0  0  0  0  0  0  0  0  0  0  0
    0.0000    0.0000    0.0000 C   0  0  0  0  0  0  0  0  0  0  0  0
    0.0000    0.0000    0.0000 C   0  0  0  0  0  0  0  0  0  0  0  0
    0.0000    0.0000    0.0000 I   0  0  0  0  0  0  0  0  0  0  0  0
    0.0000    0.0000    0.0000 C   0  0  0  0  0  0  0  0  0  0  0  0
    0.0000    0.0000    0.0000 C   0  0  0  0  0  0  0  0  0  0  0  0
    0.0000    0.0000    0.0000 C   0  0  0  0  0  0  0  0  0  0  0  0
    0.0000    0.0000    0.0000 N   0  0  0  0  0  0  0  0  0  0  0  0
  1  2  1  0
  2  3  2  0
  3  4  1  0
  4  5  1  0
  5  6  1  0
  6  7  1  0
  7  8  1  0
  8  9  1  0
  9 10  1  0
 10 11  1  0
 11 12  2  0
 12 13  1  0
 13 14  2  0
 14 15  1  0
 15 16  2  0
 16 17  1  0
 17 18  1  0
  3 19  1  0
 19 20  2  0
 19 21  1  0
 21 22  1  0
 22 23  2  0
 23 24  1  0
 23 25  1  0
 25 26  2  0
 26 27  1  0
 27 28  2  0
 28  2  1  0
 18  6  1  0
 17  9  2  0
 16 11  1  0
 27 21  1  0
M  END
>  <pIC50>  (25) 
9.62

>  <ChEMBL_ID>  (25) 
CHEMBL162682

>  <document_journal>  (25) 
Bioorg. Med. Chem. Lett.

>  <bao_endpoint>  (25) 
BAO_0000190

>  <potential_duplicate>  (25) 
False

>  <uo_units>  (25) 
UO_0000065

>  <canonical_smiles>  (25) 
CC1=C(CCN2CCc3oc4ccccc4c3C2)C(=O)N5C=C(I)C=CC5=N1

>  <parent_molecule_chembl_id>  (25) 
CHEMBL162682

>  <assay_type>  (25) 
B

>  <src_id>  (25) 
1

>  <ligand_efficiency>  (25) 
{u'le': u'0.47', u'bei': u'19.82', u'sei': u'19.61', u'lle': u'6.74'}

>  <standard_flag>  (25) 
True

>  <molecule_chembl_id>  (25) 
CHEMBL162682

>  <target_organism>  (25) 
Homo sapiens

>  <standard_units>  (25) 
nM

>  <record_id>  (25) 
320873

>  <document_chembl_id>  (25) 
CHEMBL1132860

>  <bao_format>  (25) 
BAO_0000219

>  <data_validity_description>  (25) 
None

>  <activity_id>  (25) 
981330

>  <standard_type>  (25) 
IC50

>  <target_chembl_id>  (25) 
CHEMBL1867

>  <data_validity_comment>  (25) 
None

>  <published_value>  (25) 
9.62

>  <document_year>  (25) 
2000

>  <target_pref_name>  (25) 
Alpha-2a adrenergic receptor

>  <assay_chembl_id>  (25) 
CHEMBL640335

>  <standard_relation>  (25) 
=

>  <assay_description>  (25) 
Binding affinity at human Alpha-2A adrenergic receptor in CHO cells by [3H]rauwolscine (1 nM) displacement.

>  <published_relation>  (25) 
=

>  <standard_value>  (25) 
0.2399

>  <qudt_units>  (25) 
http://www.openphacts.org/units/Nanomolar

>  <target_tax_id>  (25) 
9606

>  <bao_label>  (25) 
cell-based format

>  <published_units>  (25) 
None

>  <pchembl_value>  (25) 
9.62

>  <published_type>  (25) 
pIC50

>  <activity_comment>  (25) 
None

$$$$

     RDKit          

 27 31  0  0  0  0  0  0  0  0999 V2000
    0.0000    0.0000    0.0000 C   0  0  0  0  0  0  0  0  0  0  0  0
    0.0000    0.0000    0.0000 C   0  0  0  0  0  0  0  0  0  0  0  0
    0.0000    0.0000    0.0000 C   0  0  0  0  0  0  0  0  0  0  0  0
    0.0000    0.0000    0.0000 C   0  0  0  0  0  0  0  0  0  0  0  0
    0.0000    0.0000    0.0000 C   0  0  0  0  0  0  0  0  0  0  0  0
    0.0000    0.0000    0.0000 N   0  0  0  0  0  0  0  0  0  0  0  0
    0.0000    0.0000    0.0000 C   0  0  0  0  0  0  0  0  0  0  0  0
    0.0000    0.0000    0.0000 C   0  0  0  0  0  0  0  0  0  0  0  0
    0.0000    0.0000    0.0000 C   0  0  0  0  0  0  0  0  0  0  0  0
    0.0000    0.0000    0.0000 S   0  0  0  0  0  0  0  0  0  0  0  0
    0.0000    0.0000    0.0000 C   0  0  0  0  0  0  0  0  0  0  0  0
    0.0000    0.0000    0.0000 C   0  0  0  0  0  0  0  0  0  0  0  0
    0.0000    0.0000    0.0000 C   0  0  0  0  0  0  0  0  0  0  0  0
    0.0000    0.0000    0.0000 C   0  0  0  0  0  0  0  0  0  0  0  0
    0.0000    0.0000    0.0000 C   0  0  0  0  0  0  0  0  0  0  0  0
    0.0000    0.0000    0.0000 C   0  0  0  0  0  0  0  0  0  0  0  0
    0.0000    0.0000    0.0000 C   0  0  0  0  0  0  0  0  0  0  0  0
    0.0000    0.0000    0.0000 C   0  0  0  0  0  0  0  0  0  0  0  0
    0.0000    0.0000    0.0000 C   0  0  0  0  0  0  0  0  0  0  0  0
    0.0000    0.0000    0.0000 O   0  0  0  0  0  0  0  0  0  0  0  0
    0.0000    0.0000    0.0000 N   0  0  0  0  0  0  0  0  0  0  0  0
    0.0000    0.0000    0.0000 C   0  0  0  0  0  0  0  0  0  0  0  0
    0.0000    0.0000    0.0000 C   0  0  0  0  0  0  0  0  0  0  0  0
    0.0000    0.0000    0.0000 C   0  0  0  0  0  0  0  0  0  0  0  0
    0.0000    0.0000    0.0000 C   0  0  0  0  0  0  0  0  0  0  0  0
    0.0000    0.0000    0.0000 C   0  0  0  0  0  0  0  0  0  0  0  0
    0.0000    0.0000    0.0000 N   0  0  0  0  0  0  0  0  0  0  0  0
  1  2  1  0
  2  3  2  0
  3  4  1  0
  4  5  1  0
  5  6  1  0
  6  7  1  0
  7  8  1  0
  8  9  1  0
  9 10  1  0
 10 11  1  0
 11 12  2  0
 12 13  1  0
 13 14  2  0
 14 15  1  0
 15 16  2  0
 16 17  1  0
 17 18  1  0
  3 19  1  0
 19 20  2  0
 19 21  1  0
 21 22  1  0
 22 23  2  0
 23 24  1  0
 24 25  2  0
 25 26  1  0
 26 27  2  0
 27  2  1  0
 18  6  1  0
 17  9  2  0
 16 11  1  0
 26 21  1  0
M  END
>  <pIC50>  (26) 
8.76

>  <ChEMBL_ID>  (26) 
CHEMBL165181

>  <document_journal>  (26) 
Bioorg. Med. Chem. Lett.

>  <bao_endpoint>  (26) 
BAO_0000190

>  <potential_duplicate>  (26) 
False

>  <uo_units>  (26) 
UO_0000065

>  <canonical_smiles>  (26) 
CC1=C(CCN2CCc3sc4ccccc4c3C2)C(=O)N5C=CC=CC5=N1

>  <parent_molecule_chembl_id>  (26) 
CHEMBL165181

>  <assay_type>  (26) 
B

>  <src_id>  (26) 
1

>  <ligand_efficiency>  (26) 
{u'le': u'0.44', u'bei': u'23.33', u'sei': u'13.66', u'lle': u'5.6'}

>  <standard_flag>  (26) 
True

>  <molecule_chembl_id>  (26) 
CHEMBL165181

>  <target_organism>  (26) 
Homo sapiens

>  <standard_units>  (26) 
nM

>  <record_id>  (26) 
320884

>  <document_chembl_id>  (26) 
CHEMBL1132860

>  <bao_format>  (26) 
BAO_0000219

>  <data_validity_description>  (26) 
None

>  <activity_id>  (26) 
983874

>  <standard_type>  (26) 
IC50

>  <target_chembl_id>  (26) 
CHEMBL1867

>  <data_validity_comment>  (26) 
None

>  <published_value>  (26) 
8.76

>  <document_year>  (26) 
2000

>  <target_pref_name>  (26) 
Alpha-2a adrenergic receptor

>  <assay_chembl_id>  (26) 
CHEMBL640335

>  <standard_relation>  (26) 
=

>  <assay_description>  (26) 
Binding affinity at human Alpha-2A adrenergic receptor in CHO cells by [3H]rauwolscine (1 nM) displacement.

>  <published_relation>  (26) 
=

>  <standard_value>  (26) 
1.738

>  <qudt_units>  (26) 
http://www.openphacts.org/units/Nanomolar

>  <target_tax_id>  (26) 
9606

>  <bao_label>  (26) 
cell-based format

>  <published_units>  (26) 
None

>  <pchembl_value>  (26) 
8.76

>  <published_type>  (26) 
pIC50

>  <activity_comment>  (26) 
None

$$$$

     RDKit          

 20 23  0  0  0  0  0  0  0  0999 V2000
    0.0000    0.0000    0.0000 C   0  0  0  0  0  0  0  0  0  0  0  0
    0.0000    0.0000    0.0000 N   0  0  0  0  0  0  0  0  0  0  0  0
    0.0000    0.0000    0.0000 C   0  0  0  0  0  0  0  0  0  0  0  0
    0.0000    0.0000    0.0000 C   0  0  0  0  0  0  0  0  0  0  0  0
    0.0000    0.0000    0.0000 N   0  0  0  0  0  0  0  0  0  0  0  0
    0.0000    0.0000    0.0000 C   0  0  0  0  0  0  0  0  0  0  0  0
    0.0000    0.0000    0.0000 C   0  0  0  0  0  0  0  0  0  0  0  0
    0.0000    0.0000    0.0000 C   0  0  0  0  0  0  0  0  0  0  0  0
    0.0000    0.0000    0.0000 C   0  0  0  0  0  0  0  0  0  0  0  0
    0.0000    0.0000    0.0000 C   0  0  0  0  0  0  0  0  0  0  0  0
    0.0000    0.0000    0.0000 C   0  0  0  0  0  0  0  0  0  0  0  0
    0.0000    0.0000    0.0000 C   0  0  0  0  0  0  0  0  0  0  0  0
    0.0000    0.0000    0.0000 C   0  0  0  0  0  0  0  0  0  0  0  0
    0.0000    0.0000    0.0000 C   0  0  0  0  0  0  0  0  0  0  0  0
    0.0000    0.0000    0.0000 C   0  0  0  0  0  0  0  0  0  0  0  0
    0.0000    0.0000    0.0000 C   0  0  0  0  0  0  0  0  0  0  0  0
    0.0000    0.0000    0.0000 C   0  0  0  0  0  0  0  0  0  0  0  0
    0.0000    0.0000    0.0000 C   0  0  0  0  0  0  0  0  0  0  0  0
    0.0000    0.0000    0.0000 N   0  0  0  0  0  0  0  0  0  0  0  0
    0.0000    0.0000    0.0000 C   0  0  0  0  0  0  0  0  0  0  0  0
  1  2  1  0
  2  3  1  0
  3  4  1  0
  4  5  1  0
  5  6  1  0
  6  7  1  0
  6  8  1  0
  8  9  2  0
  9 10  1  0
 10 11  2  0
 11 12  1  0
 12 13  2  0
 13 14  1  0
 14 15  1  0
 15 16  2  0
 16 17  1  0
 17 18  2  0
 18 19  1  0
 19 20  2  0
  7  2  1  0
 20  5  1  0
 13  8  1  0
 20 15  1  0
M  END
>  <pIC50>  (27) 
7.07

>  <ChEMBL_ID>  (27) 
CHEMBL654

>  <document_journal>  (27) 
Bioorg. Med. Chem. Lett.

>  <bao_endpoint>  (27) 
BAO_0000190

>  <potential_duplicate>  (27) 
False

>  <uo_units>  (27) 
UO_0000065

>  <canonical_smiles>  (27) 
CN1CCN2C(C1)c3ccccc3Cc4cccnc24

>  <parent_molecule_chembl_id>  (27) 
CHEMBL654

>  <assay_type>  (27) 
B

>  <src_id>  (27) 
1

>  <ligand_efficiency>  (27) 
{u'le': u'0.48', u'bei': u'26.64', u'sei': u'36.5', u'lle': u'3.98'}

>  <standard_flag>  (27) 
True

>  <molecule_chembl_id>  (27) 
CHEMBL654

>  <target_organism>  (27) 
Homo sapiens

>  <standard_units>  (27) 
nM

>  <record_id>  (27) 
320882

>  <document_chembl_id>  (27) 
CHEMBL1132860

>  <bao_format>  (27) 
BAO_0000219

>  <data_validity_description>  (27) 
None

>  <activity_id>  (27) 
983880

>  <standard_type>  (27) 
IC50

>  <target_chembl_id>  (27) 
CHEMBL1867

>  <data_validity_comment>  (27) 
None

>  <published_value>  (27) 
7.07

>  <document_year>  (27) 
2000

>  <target_pref_name>  (27) 
Alpha-2a adrenergic receptor

>  <assay_chembl_id>  (27) 
CHEMBL640335

>  <standard_relation>  (27) 
=

>  <assay_description>  (27) 
Binding affinity at human Alpha-2A adrenergic receptor in CHO cells by [3H]rauwolscine (1 nM) displacement.

>  <published_relation>  (27) 
=

>  <standard_value>  (27) 
85.11

>  <qudt_units>  (27) 
http://www.openphacts.org/units/Nanomolar

>  <target_tax_id>  (27) 
9606

>  <bao_label>  (27) 
cell-based format

>  <published_units>  (27) 
None

>  <pchembl_value>  (27) 
7.07

>  <published_type>  (27) 
pIC50

>  <activity_comment>  (27) 
None

$$$$

     RDKit          

 28 32  0  0  0  0  0  0  0  0999 V2000
    0.0000    0.0000    0.0000 C   0  0  0  0  0  0  0  0  0  0  0  0
    0.0000    0.0000    0.0000 C   0  0  0  0  0  0  0  0  0  0  0  0
    0.0000    0.0000    0.0000 C   0  0  0  0  0  0  0  0  0  0  0  0
    0.0000    0.0000    0.0000 N   0  0  0  0  0  0  0  0  0  0  0  0
    0.0000    0.0000    0.0000 C   0  0  0  0  0  0  0  0  0  0  0  0
    0.0000    0.0000    0.0000 O   0  0  0  0  0  0  0  0  0  0  0  0
    0.0000    0.0000    0.0000 C   0  0  0  0  0  0  0  0  0  0  0  0
    0.0000    0.0000    0.0000 C   0  0  0  0  0  0  0  0  0  0  0  0
    0.0000    0.0000    0.0000 C   0  0  0  0  0  0  0  0  0  0  0  0
    0.0000    0.0000    0.0000 N   0  0  0  0  0  0  0  0  0  0  0  0
    0.0000    0.0000    0.0000 C   0  0  0  0  0  0  0  0  0  0  0  0
    0.0000    0.0000    0.0000 C   0  0  0  0  0  0  0  0  0  0  0  0
    0.0000    0.0000    0.0000 C   0  0  0  0  0  0  0  0  0  0  0  0
    0.0000    0.0000    0.0000 C   0  0  0  0  0  0  0  0  0  0  0  0
    0.0000    0.0000    0.0000 C   0  0  0  0  0  0  0  0  0  0  0  0
    0.0000    0.0000    0.0000 N   0  0  0  0  0  0  0  0  0  0  0  0
    0.0000    0.0000    0.0000 C   0  0  0  0  0  0  0  0  0  0  0  0
    0.0000    0.0000    0.0000 C   0  0  0  0  0  0  0  0  0  0  0  0
    0.0000    0.0000    0.0000 C   0  0  0  0  0  0  0  0  0  0  0  0
    0.0000    0.0000    0.0000 O   0  0  0  0  0  0  0  0  0  0  0  0
    0.0000    0.0000    0.0000 C   0  0  0  0  0  0  0  0  0  0  0  0
    0.0000    0.0000    0.0000 C   0  0  0  0  0  0  0  0  0  0  0  0
    0.0000    0.0000    0.0000 C   0  0  0  0  0  0  0  0  0  0  0  0
    0.0000    0.0000    0.0000 C   0  0  0  0  0  0  0  0  0  0  0  0
    0.0000    0.0000    0.0000 C   0  0  0  0  0  0  0  0  0  0  0  0
    0.0000    0.0000    0.0000 C   0  0  0  0  0  0  0  0  0  0  0  0
    0.0000    0.0000    0.0000 C   0  0  0  0  0  0  0  0  0  0  0  0
    0.0000    0.0000    0.0000 C   0  0  0  0  0  0  0  0  0  0  0  0
  1  2  1  0
  2  3  2  0
  3  4  1  0
  4  5  1  0
  5  6  2  0
  5  7  1  0
  7  8  2  0
  8  9  1  0
  8 10  1  0
 10 11  2  0
 11 12  1  0
 12 13  2  0
  7 14  1  0
 14 15  1  0
 15 16  1  0
 16 17  1  0
 17 18  1  0
 18 19  1  0
 19 20  1  0
 20 21  1  0
 21 22  2  0
 22 23  1  0
 23 24  2  0
 24 25  1  0
 25 26  2  0
 26 27  1  0
 27 28  1  0
 13  2  1  0
 11  4  1  0
 28 16  1  0
 27 19  2  0
 26 21  1  0
M  END
>  <pIC50>  (28) 
9.46

>  <ChEMBL_ID>  (28) 
CHEMBL162370

>  <document_journal>  (28) 
Bioorg. Med. Chem. Lett.

>  <bao_endpoint>  (28) 
BAO_0000190

>  <potential_duplicate>  (28) 
False

>  <uo_units>  (28) 
UO_0000065

>  <canonical_smiles>  (28) 
CC1=CN2C(=O)C(=C(C)N=C2C=C1)CCN3CCc4oc5ccccc5c4C3

>  <parent_molecule_chembl_id>  (28) 
CHEMBL162370

>  <assay_type>  (28) 
B

>  <src_id>  (28) 
1

>  <ligand_efficiency>  (28) 
{u'le': u'0.46', u'bei': u'25.33', u'sei': u'19.29', u'lle': u'6.42'}

>  <standard_flag>  (28) 
True

>  <molecule_chembl_id>  (28) 
CHEMBL162370

>  <target_organism>  (28) 
Homo sapiens

>  <standard_units>  (28) 
nM

>  <record_id>  (28) 
320880

>  <document_chembl_id>  (28) 
CHEMBL1132860

>  <bao_format>  (28) 
BAO_0000219

>  <data_validity_description>  (28) 
None

>  <activity_id>  (28) 
985087

>  <standard_type>  (28) 
IC50

>  <target_chembl_id>  (28) 
CHEMBL1867

>  <data_validity_comment>  (28) 
None

>  <published_value>  (28) 
9.46

>  <document_year>  (28) 
2000

>  <target_pref_name>  (28) 
Alpha-2a adrenergic receptor

>  <assay_chembl_id>  (28) 
CHEMBL640335

>  <standard_relation>  (28) 
=

>  <assay_description>  (28) 
Binding affinity at human Alpha-2A adrenergic receptor in CHO cells by [3H]rauwolscine (1 nM) displacement.

>  <published_relation>  (28) 
=

>  <standard_value>  (28) 
0.3467

>  <qudt_units>  (28) 
http://www.openphacts.org/units/Nanomolar

>  <target_tax_id>  (28) 
9606

>  <bao_label>  (28) 
cell-based format

>  <published_units>  (28) 
None

>  <pchembl_value>  (28) 
9.46

>  <published_type>  (28) 
pIC50

>  <activity_comment>  (28) 
None

$$$$

     RDKit          

 28 32  0  0  0  0  0  0  0  0999 V2000
    0.0000    0.0000    0.0000 C   0  0  0  0  0  0  0  0  0  0  0  0
    0.0000    0.0000    0.0000 C   0  0  0  0  0  0  0  0  0  0  0  0
    0.0000    0.0000    0.0000 C   0  0  0  0  0  0  0  0  0  0  0  0
    0.0000    0.0000    0.0000 C   0  0  0  0  0  0  0  0  0  0  0  0
    0.0000    0.0000    0.0000 C   0  0  0  0  0  0  0  0  0  0  0  0
    0.0000    0.0000    0.0000 C   0  0  0  0  0  0  0  0  0  0  0  0
    0.0000    0.0000    0.0000 N   0  0  0  0  0  0  0  0  0  0  0  0
    0.0000    0.0000    0.0000 C   0  0  0  0  0  0  0  0  0  0  0  0
    0.0000    0.0000    0.0000 C   0  0  0  0  0  0  0  0  0  0  0  0
    0.0000    0.0000    0.0000 C   0  0  0  0  0  0  0  0  0  0  0  0
    0.0000    0.0000    0.0000 C   0  0  0  0  0  0  0  0  0  0  0  0
    0.0000    0.0000    0.0000 N   0  0  0  0  0  0  0  0  0  0  0  0
    0.0000    0.0000    0.0000 C   0  0  0  0  0  0  0  0  0  0  0  0
    0.0000    0.0000    0.0000 C   0  0  0  0  0  0  0  0  0  0  0  0
    0.0000    0.0000    0.0000 C   0  0  0  0  0  0  0  0  0  0  0  0
    0.0000    0.0000    0.0000 O   0  0  0  0  0  0  0  0  0  0  0  0
    0.0000    0.0000    0.0000 C   0  0  0  0  0  0  0  0  0  0  0  0
    0.0000    0.0000    0.0000 C   0  0  0  0  0  0  0  0  0  0  0  0
    0.0000    0.0000    0.0000 C   0  0  0  0  0  0  0  0  0  0  0  0
    0.0000    0.0000    0.0000 C   0  0  0  0  0  0  0  0  0  0  0  0
    0.0000    0.0000    0.0000 C   0  0  0  0  0  0  0  0  0  0  0  0
    0.0000    0.0000    0.0000 C   0  0  0  0  0  0  0  0  0  0  0  0
    0.0000    0.0000    0.0000 C   0  0  0  0  0  0  0  0  0  0  0  0
    0.0000    0.0000    0.0000 C   0  0  0  0  0  0  0  0  0  0  0  0
    0.0000    0.0000    0.0000 C   0  0  0  0  0  0  0  0  0  0  0  0
    0.0000    0.0000    0.0000 O   0  0  0  0  0  0  0  0  0  0  0  0
    0.0000    0.0000    0.0000 N   0  0  0  0  0  0  0  0  0  0  0  0
    0.0000    0.0000    0.0000 C   0  0  0  0  0  0  0  0  0  0  0  0
  1  2  1  0
  2  3  2  0
  3  4  1  0
  4  5  2  0
  5  6  1  0
  6  7  2  0
  7  8  1  0
  8  9  2  0
  9 10  1  0
 10 11  1  0
 11 12  1  0
 12 13  1  0
 13 14  1  0
 14 15  1  0
 15 16  1  0
 16 17  1  0
 17 18  2  0
 18 19  1  0
 19 20  2  0
 20 21  1  0
 21 22  2  0
 22 23  1  0
 23 24  1  0
  9 25  1  0
 25 26  2  0
 25 27  1  0
  8 28  1  0
 27  2  1  0
 27  6  1  0
 24 12  1  0
 23 15  2  0
 22 17  1  0
M  END
>  <pIC50>  (29) 
9.54

>  <ChEMBL_ID>  (29) 
CHEMBL163190

>  <document_journal>  (29) 
Bioorg. Med. Chem. Lett.

>  <bao_endpoint>  (29) 
BAO_0000190

>  <potential_duplicate>  (29) 
False

>  <uo_units>  (29) 
UO_0000065

>  <canonical_smiles>  (29) 
CC1=CC=CC2=NC(=C(CCN3CCc4oc5ccccc5c4C3)C(=O)N12)C

>  <parent_molecule_chembl_id>  (29) 
CHEMBL163190

>  <assay_type>  (29) 
B

>  <src_id>  (29) 
1

>  <ligand_efficiency>  (29) 
{u'le': u'0.47', u'bei': u'25.55', u'sei': u'19.45', u'lle': u'6.43'}

>  <standard_flag>  (29) 
True

>  <molecule_chembl_id>  (29) 
CHEMBL163190

>  <target_organism>  (29) 
Homo sapiens

>  <standard_units>  (29) 
nM

>  <record_id>  (29) 
320875

>  <document_chembl_id>  (29) 
CHEMBL1132860

>  <bao_format>  (29) 
BAO_0000219

>  <data_validity_description>  (29) 
None

>  <activity_id>  (29) 
985093

>  <standard_type>  (29) 
IC50

>  <target_chembl_id>  (29) 
CHEMBL1867

>  <data_validity_comment>  (29) 
None

>  <published_value>  (29) 
9.54

>  <document_year>  (29) 
2000

>  <target_pref_name>  (29) 
Alpha-2a adrenergic receptor

>  <assay_chembl_id>  (29) 
CHEMBL640335

>  <standard_relation>  (29) 
=

>  <assay_description>  (29) 
Binding affinity at human Alpha-2A adrenergic receptor in CHO cells by [3H]rauwolscine (1 nM) displacement.

>  <published_relation>  (29) 
=

>  <standard_value>  (29) 
0.2884

>  <qudt_units>  (29) 
http://www.openphacts.org/units/Nanomolar

>  <target_tax_id>  (29) 
9606

>  <bao_label>  (29) 
cell-based format

>  <published_units>  (29) 
None

>  <pchembl_value>  (29) 
9.54

>  <published_type>  (29) 
pIC50

>  <activity_comment>  (29) 
None

$$$$

     RDKit          

 23 26  0  0  0  0  0  0  0  0999 V2000
    0.0000    0.0000    0.0000 C   0  0  0  0  0  0  0  0  0  0  0  0
    0.0000    0.0000    0.0000 N   0  0  0  0  0  0  0  0  0  0  0  0
    0.0000    0.0000    0.0000 C   0  0  0  0  0  0  0  0  0  0  0  0
    0.0000    0.0000    0.0000 C   0  0  0  0  0  0  0  0  0  0  0  0
    0.0000    0.0000    0.0000 C   0  0  0  0  0  0  0  0  0  0  0  0
    0.0000    0.0000    0.0000 C   0  0  0  0  0  0  0  0  0  0  0  0
    0.0000    0.0000    0.0000 C   0  0  0  0  0  0  0  0  0  0  0  0
    0.0000    0.0000    0.0000 N   0  0  0  0  0  0  0  0  0  0  0  0
    0.0000    0.0000    0.0000 O   0  0  0  0  0  0  0  0  0  0  0  0
    0.0000    0.0000    0.0000 C   0  0  0  0  0  0  0  0  0  0  0  0
    0.0000    0.0000    0.0000 C   0  0  0  0  0  0  0  0  0  0  0  0
    0.0000    0.0000    0.0000 C   0  0  0  0  0  0  0  0  0  0  0  0
    0.0000    0.0000    0.0000 F   0  0  0  0  0  0  0  0  0  0  0  0
    0.0000    0.0000    0.0000 C   0  0  0  0  0  0  0  0  0  0  0  0
    0.0000    0.0000    0.0000 C   0  0  0  0  0  0  0  0  0  0  0  0
    0.0000    0.0000    0.0000 C   0  0  0  0  0  0  0  0  0  0  0  0
    0.0000    0.0000    0.0000 C   0  0  0  0  0  0  0  0  0  0  0  0
    0.0000    0.0000    0.0000 C   0  0  0  0  0  0  0  0  0  0  0  0
    0.0000    0.0000    0.0000 C   0  0  0  0  0  0  0  0  0  0  0  0
    0.0000    0.0000    0.0000 C   0  0  0  0  0  0  0  0  0  0  0  0
    0.0000    0.0000    0.0000 C   0  0  0  0  0  0  0  0  0  0  0  0
    0.0000    0.0000    0.0000 C   0  0  0  0  0  0  0  0  0  0  0  0
    0.0000    0.0000    0.0000 C   0  0  0  0  0  0  0  0  0  0  0  0
  1  2  1  0
  2  3  1  0
  2  4  1  0
  4  5  1  0
  5  6  1  0
  6  7  1  0
  7  8  1  0
  8  9  1  0
  8 10  1  0
 10 11  2  0
 11 12  1  0
 12 13  1  0
 12 14  2  0
 14 15  1  0
 15 16  2  0
 16 17  1  0
 17 18  1  0
 18 19  2  0
 19 20  1  0
 20 21  2  0
 21 22  1  0
 22 23  2  0
  9  5  1  0
 23  7  1  0
 16 10  1  0
 23 18  1  0
M  END
>  <pIC50>  (30) 
6.3

>  <ChEMBL_ID>  (30) 
CHEMBL84931

>  <document_journal>  (30) 
Bioorg. Med. Chem. Lett.

>  <bao_endpoint>  (30) 
BAO_0000190

>  <potential_duplicate>  (30) 
False

>  <uo_units>  (30) 
UO_0000065

>  <canonical_smiles>  (30) 
CN(C)CC1CC2N(O1)c3cc(F)ccc3Cc4ccccc24

>  <parent_molecule_chembl_id>  (30) 
CHEMBL84931

>  <assay_type>  (30) 
B

>  <src_id>  (30) 
1

>  <ligand_efficiency>  (30) 
{u'le': u'0.37', u'bei': u'20.17', u'sei': u'40.1', u'lle': u'2.43'}

>  <standard_flag>  (30) 
True

>  <molecule_chembl_id>  (30) 
CHEMBL84931

>  <target_organism>  (30) 
Homo sapiens

>  <standard_units>  (30) 
nM

>  <record_id>  (30) 
152192

>  <document_chembl_id>  (30) 
CHEMBL1135381

>  <bao_format>  (30) 
BAO_0000357

>  <data_validity_description>  (30) 
None

>  <activity_id>  (30) 
1152331

>  <standard_type>  (30) 
IC50

>  <target_chembl_id>  (30) 
CHEMBL1867

>  <data_validity_comment>  (30) 
None

>  <published_value>  (30) 
6.3

>  <document_year>  (30) 
2002

>  <target_pref_name>  (30) 
Alpha-2a adrenergic receptor

>  <assay_chembl_id>  (30) 
CHEMBL640499

>  <standard_relation>  (30) 
=

>  <assay_description>  (30) 
Binding affinity for human cloned Alpha-2A adrenergic receptor

>  <published_relation>  (30) 
=

>  <standard_value>  (30) 
501.19

>  <qudt_units>  (30) 
http://www.openphacts.org/units/Nanomolar

>  <target_tax_id>  (30) 
9606

>  <bao_label>  (30) 
single protein format

>  <published_units>  (30) 
None

>  <pchembl_value>  (30) 
6.3

>  <published_type>  (30) 
pIC50

>  <activity_comment>  (30) 
None

$$$$

     RDKit          

 16 18  0  0  0  0  0  0  0  0999 V2000
    0.0000    0.0000    0.0000 C   0  0  0  0  0  0  0  0  0  0  0  0
    0.0000    0.0000    0.0000 C   0  0  0  0  0  0  0  0  0  0  0  0
    0.0000    0.0000    0.0000 C   0  0  0  0  0  0  0  0  0  0  0  0
    0.0000    0.0000    0.0000 N   0  0  0  0  0  0  0  0  0  0  0  0
    0.0000    0.0000    0.0000 C   0  0  0  0  0  0  0  0  0  0  0  0
    0.0000    0.0000    0.0000 N   0  0  0  0  0  0  0  0  0  0  0  0
    0.0000    0.0000    0.0000 C   0  0  0  0  0  0  0  0  0  0  0  0
    0.0000    0.0000    0.0000 C   0  0  0  0  0  0  0  0  0  0  0  0
    0.0000    0.0000    0.0000 C   0  0  0  0  0  0  0  0  0  0  0  0
    0.0000    0.0000    0.0000 C   0  0  0  0  0  0  0  0  0  0  0  0
    0.0000    0.0000    0.0000 C   0  0  0  0  0  0  0  0  0  0  0  0
    0.0000    0.0000    0.0000 C   0  0  0  0  0  0  0  0  0  0  0  0
    0.0000    0.0000    0.0000 C   0  0  0  0  0  0  0  0  0  0  0  0
    0.0000    0.0000    0.0000 C   0  0  0  0  0  0  0  0  0  0  0  0
    0.0000    0.0000    0.0000 C   0  0  0  0  0  0  0  0  0  0  0  0
    0.0000    0.0000    0.0000 C   0  0  0  0  0  0  0  0  0  0  0  0
  1  2  1  0
  2  3  2  0
  3  4  1  0
  4  5  1  0
  5  6  2  0
  1  7  1  0
  7  8  2  0
  8  9  1  0
  9 10  2  0
 10 11  1  0
 11 12  2  0
 12 13  1  0
 13 14  2  0
 14 15  1  0
 15 16  2  0
  6  2  1  0
 16  7  1  0
 16 11  1  0
M  END
>  <pIC50>  (31) 
5.52

>  <ChEMBL_ID>  (31) 
CHEMBL544765

>  <document_journal>  (31) 
J. Med. Chem.

>  <bao_endpoint>  (31) 
BAO_0000190

>  <potential_duplicate>  (31) 
False

>  <uo_units>  (31) 
UO_0000065

>  <canonical_smiles>  (31) 
Cl.C(c1c[nH]cn1)c2cccc3ccccc23

>  <parent_molecule_chembl_id>  (31) 
CHEMBL1193371

>  <assay_type>  (31) 
F

>  <src_id>  (31) 
1

>  <ligand_efficiency>  (31) 
None

>  <standard_flag>  (31) 
True

>  <molecule_chembl_id>  (31) 
CHEMBL544765

>  <target_organism>  (31) 
Homo sapiens

>  <standard_units>  (31) 
nM

>  <record_id>  (31) 
135716

>  <document_chembl_id>  (31) 
CHEMBL1127588

>  <bao_format>  (31) 
BAO_0000019

>  <data_validity_description>  (31) 
None

>  <activity_id>  (31) 
1198541

>  <standard_type>  (31) 
IC50

>  <target_chembl_id>  (31) 
CHEMBL1867

>  <data_validity_comment>  (31) 
None

>  <published_value>  (31) 
3

>  <document_year>  (31) 
1994

>  <target_pref_name>  (31) 
Alpha-2a adrenergic receptor

>  <assay_chembl_id>  (31) 
CHEMBL649804

>  <standard_relation>  (31) 
=

>  <assay_description>  (31) 
Tested for its ability to antagonize epinephrine induced primary wave aggregation in human platelets at alpha-2A-adrenergic receptor sites.

>  <published_relation>  (31) 
=

>  <standard_value>  (31) 
3000

>  <qudt_units>  (31) 
http://www.openphacts.org/units/Nanomolar

>  <target_tax_id>  (31) 
9606

>  <bao_label>  (31) 
assay format

>  <published_units>  (31) 
uM

>  <pchembl_value>  (31) 
5.52

>  <published_type>  (31) 
IC50

>  <activity_comment>  (31) 
None

$$$$

     RDKit          

 17 19  0  0  0  0  0  0  0  0999 V2000
    0.0000    0.0000    0.0000 C   0  0  0  0  0  0  0  0  0  0  0  0
    0.0000    0.0000    0.0000 C   0  0  0  0  0  0  0  0  0  0  0  0
    0.0000    0.0000    0.0000 C   0  0  0  0  0  0  0  0  0  0  0  0
    0.0000    0.0000    0.0000 C   0  0  0  0  0  0  0  0  0  0  0  0
    0.0000    0.0000    0.0000 N   0  0  0  0  0  0  0  0  0  0  0  0
    0.0000    0.0000    0.0000 C   0  0  0  0  0  0  0  0  0  0  0  0
    0.0000    0.0000    0.0000 N   0  0  0  0  0  0  0  0  0  0  0  0
    0.0000    0.0000    0.0000 C   0  0  0  0  0  0  0  0  0  0  0  0
    0.0000    0.0000    0.0000 C   0  0  0  0  0  0  0  0  0  0  0  0
    0.0000    0.0000    0.0000 C   0  0  0  0  0  0  0  0  0  0  0  0
    0.0000    0.0000    0.0000 C   0  0  0  0  0  0  0  0  0  0  0  0
    0.0000    0.0000    0.0000 C   0  0  0  0  0  0  0  0  0  0  0  0
    0.0000    0.0000    0.0000 C   0  0  0  0  0  0  0  0  0  0  0  0
    0.0000    0.0000    0.0000 C   0  0  0  0  0  0  0  0  0  0  0  0
    0.0000    0.0000    0.0000 C   0  0  0  0  0  0  0  0  0  0  0  0
    0.0000    0.0000    0.0000 C   0  0  0  0  0  0  0  0  0  0  0  0
    0.0000    0.0000    0.0000 C   0  0  0  0  0  0  0  0  0  0  0  0
  1  2  1  0
  2  3  1  0
  3  4  2  0
  4  5  1  0
  5  6  1  0
  6  7  2  0
  2  8  1  0
  8  9  2  0
  9 10  1  0
 10 11  2  0
 11 12  1  0
 12 13  2  0
 13 14  1  0
 14 15  2  0
 15 16  1  0
 16 17  2  0
  7  3  1  0
 17  8  1  0
 17 12  1  0
M  END
>  <pIC50>  (32) 
5.28

>  <ChEMBL_ID>  (32) 
CHEMBL306751

>  <document_journal>  (32) 
J. Med. Chem.

>  <bao_endpoint>  (32) 
BAO_0000190

>  <potential_duplicate>  (32) 
False

>  <uo_units>  (32) 
UO_0000065

>  <canonical_smiles>  (32) 
CC(c1c[nH]cn1)c2cccc3ccccc23

>  <parent_molecule_chembl_id>  (32) 
CHEMBL306751

>  <assay_type>  (32) 
F

>  <src_id>  (32) 
1

>  <ligand_efficiency>  (32) 
None

>  <standard_flag>  (32) 
True

>  <molecule_chembl_id>  (32) 
CHEMBL306751

>  <target_organism>  (32) 
Homo sapiens

>  <standard_units>  (32) 
nM

>  <record_id>  (32) 
135717

>  <document_chembl_id>  (32) 
CHEMBL1127588

>  <bao_format>  (32) 
BAO_0000019

>  <data_validity_description>  (32) 
None

>  <activity_id>  (32) 
1199989

>  <standard_type>  (32) 
IC50

>  <target_chembl_id>  (32) 
CHEMBL1867

>  <data_validity_comment>  (32) 
None

>  <published_value>  (32) 
12.3

>  <document_year>  (32) 
1994

>  <target_pref_name>  (32) 
Alpha-2a adrenergic receptor

>  <assay_chembl_id>  (32) 
CHEMBL649804

>  <standard_relation>  (32) 
=

>  <assay_description>  (32) 
Tested for its ability to antagonize epinephrine induced primary wave aggregation in human platelets at alpha-2A-adrenergic receptor sites.

>  <published_relation>  (32) 
=

>  <standard_value>  (32) 
12300

>  <qudt_units>  (32) 
http://www.openphacts.org/units/Nanomolar

>  <target_tax_id>  (32) 
9606

>  <bao_label>  (32) 
assay format

>  <published_units>  (32) 
uM

>  <pchembl_value>  (32) 
4.91

>  <published_type>  (32) 
IC50

>  <activity_comment>  (32) 
None

$$$$

     RDKit          

 17 19  0  0  0  0  0  0  0  0999 V2000
    0.0000    0.0000    0.0000 O   0  0  0  0  0  0  0  0  0  0  0  0
    0.0000    0.0000    0.0000 C   0  0  0  0  0  0  0  0  0  0  0  0
    0.0000    0.0000    0.0000 C   0  0  0  0  0  0  0  0  0  0  0  0
    0.0000    0.0000    0.0000 C   0  0  0  0  0  0  0  0  0  0  0  0
    0.0000    0.0000    0.0000 N   0  0  0  0  0  0  0  0  0  0  0  0
    0.0000    0.0000    0.0000 C   0  0  0  0  0  0  0  0  0  0  0  0
    0.0000    0.0000    0.0000 N   0  0  0  0  0  0  0  0  0  0  0  0
    0.0000    0.0000    0.0000 C   0  0  0  0  0  0  0  0  0  0  0  0
    0.0000    0.0000    0.0000 C   0  0  0  0  0  0  0  0  0  0  0  0
    0.0000    0.0000    0.0000 C   0  0  0  0  0  0  0  0  0  0  0  0
    0.0000    0.0000    0.0000 C   0  0  0  0  0  0  0  0  0  0  0  0
    0.0000    0.0000    0.0000 C   0  0  0  0  0  0  0  0  0  0  0  0
    0.0000    0.0000    0.0000 C   0  0  0  0  0  0  0  0  0  0  0  0
    0.0000    0.0000    0.0000 C   0  0  0  0  0  0  0  0  0  0  0  0
    0.0000    0.0000    0.0000 C   0  0  0  0  0  0  0  0  0  0  0  0
    0.0000    0.0000    0.0000 C   0  0  0  0  0  0  0  0  0  0  0  0
    0.0000    0.0000    0.0000 C   0  0  0  0  0  0  0  0  0  0  0  0
  1  2  1  0
  2  3  1  0
  3  4  2  0
  4  5  1  0
  5  6  1  0
  6  7  2  0
  2  8  1  0
  8  9  2  0
  9 10  1  0
 10 11  2  0
 11 12  1  0
 12 13  2  0
 13 14  1  0
 14 15  2  0
 15 16  1  0
 16 17  2  0
  7  3  1  0
 17  8  1  0
 17 12  1  0
M  END
>  <pIC50>  (33) 
4.21

>  <ChEMBL_ID>  (33) 
CHEMBL542155

>  <document_journal>  (33) 
J. Med. Chem.

>  <bao_endpoint>  (33) 
BAO_0000190

>  <potential_duplicate>  (33) 
False

>  <uo_units>  (33) 
UO_0000065

>  <canonical_smiles>  (33) 
Cl.OC(c1c[nH]cn1)c2cccc3ccccc23

>  <parent_molecule_chembl_id>  (33) 
CHEMBL1191106

>  <assay_type>  (33) 
F

>  <src_id>  (33) 
1

>  <ligand_efficiency>  (33) 
None

>  <standard_flag>  (33) 
True

>  <molecule_chembl_id>  (33) 
CHEMBL542155

>  <target_organism>  (33) 
Homo sapiens

>  <standard_units>  (33) 
nM

>  <record_id>  (33) 
135718

>  <document_chembl_id>  (33) 
CHEMBL1127588

>  <bao_format>  (33) 
BAO_0000019

>  <data_validity_description>  (33) 
None

>  <activity_id>  (33) 
1215849

>  <standard_type>  (33) 
IC50

>  <target_chembl_id>  (33) 
CHEMBL1867

>  <data_validity_comment>  (33) 
None

>  <published_value>  (33) 
61.9

>  <document_year>  (33) 
1994

>  <target_pref_name>  (33) 
Alpha-2a adrenergic receptor

>  <assay_chembl_id>  (33) 
CHEMBL649804

>  <standard_relation>  (33) 
=

>  <assay_description>  (33) 
Tested for its ability to antagonize epinephrine induced primary wave aggregation in human platelets at alpha-2A-adrenergic receptor sites.

>  <published_relation>  (33) 
=

>  <standard_value>  (33) 
61900

>  <qudt_units>  (33) 
http://www.openphacts.org/units/Nanomolar

>  <target_tax_id>  (33) 
9606

>  <bao_label>  (33) 
assay format

>  <published_units>  (33) 
uM

>  <pchembl_value>  (33) 
4.21

>  <published_type>  (33) 
IC50

>  <activity_comment>  (33) 
None

$$$$

     RDKit          

 15 16  0  0  0  0  0  0  0  0999 V2000
    0.0000    0.0000    0.0000 C   0  0  0  0  0  0  0  0  0  0  0  0
    0.0000    0.0000    0.0000 C   0  0  0  0  0  0  0  0  0  0  0  0
    0.0000    0.0000    0.0000 C   0  0  0  0  0  0  0  0  0  0  0  0
    0.0000    0.0000    0.0000 C   0  0  0  0  0  0  0  0  0  0  0  0
    0.0000    0.0000    0.0000 N   0  0  0  0  0  0  0  0  0  0  0  0
    0.0000    0.0000    0.0000 C   0  0  0  0  0  0  0  0  0  0  0  0
    0.0000    0.0000    0.0000 N   0  0  0  0  0  0  0  0  0  0  0  0
    0.0000    0.0000    0.0000 C   0  0  0  0  0  0  0  0  0  0  0  0
    0.0000    0.0000    0.0000 C   0  0  0  0  0  0  0  0  0  0  0  0
    0.0000    0.0000    0.0000 C   0  0  0  0  0  0  0  0  0  0  0  0
    0.0000    0.0000    0.0000 C   0  0  0  0  0  0  0  0  0  0  0  0
    0.0000    0.0000    0.0000 C   0  0  0  0  0  0  0  0  0  0  0  0
    0.0000    0.0000    0.0000 C   0  0  0  0  0  0  0  0  0  0  0  0
    0.0000    0.0000    0.0000 C   0  0  0  0  0  0  0  0  0  0  0  0
    0.0000    0.0000    0.0000 C   0  0  0  0  0  0  0  0  0  0  0  0
  1  2  1  0
  2  3  1  0
  3  4  2  0
  4  5  1  0
  5  6  1  0
  6  7  2  0
  2  8  1  0
  8  9  2  0
  9 10  1  0
 10 11  2  0
 11 12  1  0
 12 13  1  0
 12 14  2  0
 14 15  1  0
  7  3  1  0
 14  8  1  0
M  END
>  <pIC50>  (34) 
5.47

>  <ChEMBL_ID>  (34) 
CHEMBL77921

>  <document_journal>  (34) 
J. Med. Chem.

>  <bao_endpoint>  (34) 
BAO_0000190

>  <potential_duplicate>  (34) 
False

>  <uo_units>  (34) 
UO_0000065

>  <canonical_smiles>  (34) 
CC(c1c[nH]cn1)c2cccc(C)c2C

>  <parent_molecule_chembl_id>  (34) 
CHEMBL77921

>  <assay_type>  (34) 
F

>  <src_id>  (34) 
1

>  <ligand_efficiency>  (34) 
None

>  <standard_flag>  (34) 
True

>  <molecule_chembl_id>  (34) 
CHEMBL77921

>  <target_organism>  (34) 
Homo sapiens

>  <standard_units>  (34) 
nM

>  <record_id>  (34) 
135713

>  <document_chembl_id>  (34) 
CHEMBL1127588

>  <bao_format>  (34) 
BAO_0000019

>  <data_validity_description>  (34) 
None

>  <activity_id>  (34) 
1222277

>  <standard_type>  (34) 
IC50

>  <target_chembl_id>  (34) 
CHEMBL1867

>  <data_validity_comment>  (34) 
None

>  <published_value>  (34) 
3.4

>  <document_year>  (34) 
1994

>  <target_pref_name>  (34) 
Alpha-2a adrenergic receptor

>  <assay_chembl_id>  (34) 
CHEMBL649804

>  <standard_relation>  (34) 
=

>  <assay_description>  (34) 
Tested for its ability to antagonize epinephrine induced primary wave aggregation in human platelets at alpha-2A-adrenergic receptor sites.

>  <published_relation>  (34) 
=

>  <standard_value>  (34) 
3400

>  <qudt_units>  (34) 
http://www.openphacts.org/units/Nanomolar

>  <target_tax_id>  (34) 
9606

>  <bao_label>  (34) 
assay format

>  <published_units>  (34) 
uM

>  <pchembl_value>  (34) 
5.47

>  <published_type>  (34) 
IC50

>  <activity_comment>  (34) 
None

$$$$

     RDKit          

 25 28  0  0  0  0  0  0  0  0999 V2000
    0.0000    0.0000    0.0000 Cl  0  0  0  0  0  0  0  0  0  0  0  0
    0.0000    0.0000    0.0000 C   0  0  0  0  0  0  0  0  0  0  0  0
    0.0000    0.0000    0.0000 C   0  0  0  0  0  0  0  0  0  0  0  0
    0.0000    0.0000    0.0000 C   0  0  0  0  0  0  0  0  0  0  0  0
    0.0000    0.0000    0.0000 C   0  0  0  0  0  0  0  0  0  0  0  0
    0.0000    0.0000    0.0000 C   0  0  0  0  0  0  0  0  0  0  0  0
    0.0000    0.0000    0.0000 C   0  0  0  0  0  0  0  0  0  0  0  0
    0.0000    0.0000    0.0000 N   0  0  0  0  0  0  0  0  0  0  0  0
    0.0000    0.0000    0.0000 C   0  0  0  0  0  0  0  0  0  0  0  0
    0.0000    0.0000    0.0000 C   0  0  0  0  0  0  0  0  0  0  0  0
    0.0000    0.0000    0.0000 N   0  0  0  0  0  0  0  0  0  0  0  0
    0.0000    0.0000    0.0000 C   0  0  0  0  0  0  0  0  0  0  0  0
    0.0000    0.0000    0.0000 C   0  0  0  0  0  0  0  0  0  0  0  0
    0.0000    0.0000    0.0000 C   0  0  0  0  0  0  0  0  0  0  0  0
    0.0000    0.0000    0.0000 C   0  0  0  0  0  0  0  0  0  0  0  0
    0.0000    0.0000    0.0000 C   0  0  0  0  0  0  0  0  0  0  0  0
    0.0000    0.0000    0.0000 N   0  0  0  0  0  0  0  0  0  0  0  0
    0.0000    0.0000    0.0000 C   0  0  0  0  0  0  0  0  0  0  0  0
    0.0000    0.0000    0.0000 O   0  0  0  0  0  0  0  0  0  0  0  0
    0.0000    0.0000    0.0000 C   0  0  0  0  0  0  0  0  0  0  0  0
    0.0000    0.0000    0.0000 O   0  0  0  0  0  0  0  0  0  0  0  0
    0.0000    0.0000    0.0000 C   0  0  0  0  0  0  0  0  0  0  0  0
    0.0000    0.0000    0.0000 C   0  0  0  0  0  0  0  0  0  0  0  0
    0.0000    0.0000    0.0000 C   0  0  0  0  0  0  0  0  0  0  0  0
    0.0000    0.0000    0.0000 C   0  0  0  0  0  0  0  0  0  0  0  0
  1  2  1  0
  2  3  2  0
  3  4  1  0
  4  5  2  0
  5  6  1  0
  6  7  2  0
  5  8  1  0
  8  9  1  0
  9 10  1  0
 10 11  1  0
 11 12  1  0
 12 13  1  0
 13 14  2  0
 14 15  1  0
 15 16  2  0
 16 17  1  0
 17 18  1  0
 18 19  2  0
 18 20  1  0
 20 21  1  0
 21 22  1  0
 22 23  2  0
 11 24  1  0
 24 25  1  0
  7  2  1  0
 25  8  1  0
 23 13  1  0
 22 16  1  0
M  END
>  <pIC50>  (35) 
5.96

>  <ChEMBL_ID>  (35) 
CHEMBL346389

>  <document_journal>  (35) 
J. Med. Chem.

>  <bao_endpoint>  (35) 
BAO_0000190

>  <potential_duplicate>  (35) 
False

>  <uo_units>  (35) 
UO_0000065

>  <canonical_smiles>  (35) 
Clc1ccc(cc1)N2CCN(Cc3ccc4NC(=O)COc4c3)CC2

>  <parent_molecule_chembl_id>  (35) 
CHEMBL346389

>  <assay_type>  (35) 
B

>  <src_id>  (35) 
1

>  <ligand_efficiency>  (35) 
{u'le': u'0.33', u'bei': u'16.65', u'sei': u'13.3', u'lle': u'2.97'}

>  <standard_flag>  (35) 
True

>  <molecule_chembl_id>  (35) 
CHEMBL346389

>  <target_organism>  (35) 
Homo sapiens

>  <standard_units>  (35) 
nM

>  <record_id>  (35) 
290541

>  <document_chembl_id>  (35) 
CHEMBL1132537

>  <bao_format>  (35) 
BAO_0000357

>  <data_validity_description>  (35) 
None

>  <activity_id>  (35) 
1305608

>  <standard_type>  (35) 
IC50

>  <target_chembl_id>  (35) 
CHEMBL1867

>  <data_validity_comment>  (35) 
None

>  <published_value>  (35) 
1100

>  <document_year>  (35) 
1999

>  <target_pref_name>  (35) 
Alpha-2a adrenergic receptor

>  <assay_chembl_id>  (35) 
CHEMBL647294

>  <standard_relation>  (35) 
=

>  <assay_description>  (35) 
Inhibition of [3H]- MK-912 binding against human recombinant Alpha-2A adrenergic receptor

>  <published_relation>  (35) 
=

>  <standard_value>  (35) 
1100

>  <qudt_units>  (35) 
http://www.openphacts.org/units/Nanomolar

>  <target_tax_id>  (35) 
9606

>  <bao_label>  (35) 
single protein format

>  <published_units>  (35) 
nM

>  <pchembl_value>  (35) 
5.96

>  <published_type>  (35) 
IC50

>  <activity_comment>  (35) 
None

$$$$

     RDKit          

 36 39  0  0  0  0  0  0  0  0999 V2000
    0.0000    0.0000    0.0000 C   0  0  0  0  0  0  0  0  0  0  0  0
    0.0000    0.0000    0.0000 N   0  0  0  0  0  0  0  0  0  0  0  0
    0.0000    0.0000    0.0000 C   0  0  0  0  0  0  0  0  0  0  0  0
    0.0000    0.0000    0.0000 C   0  0  0  0  0  0  0  0  0  0  0  0
    0.0000    0.0000    0.0000 N   0  0  0  0  0  0  0  0  0  0  0  0
    0.0000    0.0000    0.0000 C   0  0  0  0  0  0  0  0  0  0  0  0
    0.0000    0.0000    0.0000 N   0  0  0  0  0  0  0  0  0  0  0  0
    0.0000    0.0000    0.0000 C   0  0  0  0  0  0  0  0  0  0  0  0
    0.0000    0.0000    0.0000 C   0  0  0  0  0  0  0  0  0  0  0  0
    0.0000    0.0000    0.0000 C   0  0  0  0  0  0  0  0  0  0  0  0
    0.0000    0.0000    0.0000 C   0  0  0  0  0  0  0  0  0  0  0  0
    0.0000    0.0000    0.0000 C   0  0  0  0  0  0  0  0  0  0  0  0
    0.0000    0.0000    0.0000 C   0  0  0  0  0  0  0  0  0  0  0  0
    0.0000    0.0000    0.0000 N   0  0  0  0  0  0  0  0  0  0  0  0
    0.0000    0.0000    0.0000 S   0  0  0  0  0  0  0  0  0  0  0  0
    0.0000    0.0000    0.0000 O   0  0  0  0  0  0  0  0  0  0  0  0
    0.0000    0.0000    0.0000 O   0  0  0  0  0  0  0  0  0  0  0  0
    0.0000    0.0000    0.0000 C   0  0  0  0  0  0  0  0  0  0  0  0
    0.0000    0.0000    0.0000 C   0  0  0  0  0  0  0  0  0  0  0  0
    0.0000    0.0000    0.0000 C   0  0  0  0  0  0  0  0  0  0  0  0
    0.0000    0.0000    0.0000 C   0  0  0  0  0  0  0  0  0  0  0  0
    0.0000    0.0000    0.0000 Br  0  0  0  0  0  0  0  0  0  0  0  0
    0.0000    0.0000    0.0000 C   0  0  0  0  0  0  0  0  0  0  0  0
    0.0000    0.0000    0.0000 C   0  0  0  0  0  0  0  0  0  0  0  0
    0.0000    0.0000    0.0000 O   0  0  0  0  0  0  0  0  0  0  0  0
    0.0000    0.0000    0.0000 C   0  0  0  0  0  0  0  0  0  0  0  0
    0.0000    0.0000    0.0000 F   0  0  0  0  0  0  0  0  0  0  0  0
    0.0000    0.0000    0.0000 F   0  0  0  0  0  0  0  0  0  0  0  0
    0.0000    0.0000    0.0000 F   0  0  0  0  0  0  0  0  0  0  0  0
    0.0000    0.0000    0.0000 N   0  0  0  0  0  0  0  0  0  0  0  0
    0.0000    0.0000    0.0000 C   0  0  0  0  0  0  0  0  0  0  0  0
    0.0000    0.0000    0.0000 C   0  0  0  0  0  0  0  0  0  0  0  0
    0.0000    0.0000    0.0000 C   0  0  0  0  0  0  0  0  0  0  0  0
    0.0000    0.0000    0.0000 C   0  0  0  0  0  0  0  0  0  0  0  0
    0.0000    0.0000    0.0000 C   0  0  0  0  0  0  0  0  0  0  0  0
    0.0000    0.0000    0.0000 C   0  0  0  0  0  0  0  0  0  0  0  0
  1  2  1  0
  2  3  1  0
  2  4  1  0
  4  5  2  0
  5  6  1  0
  6  7  1  0
  7  8  1  0
  8  9  1  0
  9 10  1  0
 10 11  1  0
 11 12  1  0
 12 13  1  0
 11 14  1  0
 14 15  1  0
 15 16  2  0
 15 17  2  0
 15 18  1  0
 18 19  2  0
 19 20  1  0
 20 21  2  0
 21 22  1  0
 21 23  1  0
 23 24  2  0
 24 25  1  0
 25 26  1  0
 26 27  1  0
 26 28  1  0
 26 29  1  0
  6 30  2  0
 30 31  1  0
 31 32  2  0
 32 33  1  0
 33 34  2  0
 34 35  1  0
 35 36  2  0
 36  4  1  0
 13  8  1  0
 24 18  1  0
 36 31  1  0
M  END
>  <pIC50>  (36) 
7.24

>  <ChEMBL_ID>  (36) 
CHEMBL180003

>  <document_journal>  (36) 
Bioorg. Med. Chem. Lett.

>  <bao_endpoint>  (36) 
BAO_0000190

>  <potential_duplicate>  (36) 
False

>  <uo_units>  (36) 
UO_0000065

>  <canonical_smiles>  (36) 
CN(C)c1nc(N[C@@H]2CC[C@@H](CC2)NS(=O)(=O)c3ccc(Br)cc3OC(F)(F)F)nc4ccccc14

>  <parent_molecule_chembl_id>  (36) 
CHEMBL180003

>  <assay_type>  (36) 
B

>  <src_id>  (36) 
1

>  <ligand_efficiency>  (36) 
{u'le': u'0.27', u'bei': u'12.31', u'sei': u'6.91', u'lle': u'0.23'}

>  <standard_flag>  (36) 
True

>  <molecule_chembl_id>  (36) 
CHEMBL180003

>  <target_organism>  (36) 
Homo sapiens

>  <standard_units>  (36) 
nM

>  <record_id>  (36) 
367702

>  <document_chembl_id>  (36) 
CHEMBL1142793

>  <bao_format>  (36) 
BAO_0000219

>  <data_validity_description>  (36) 
None

>  <activity_id>  (36) 
1429289

>  <standard_type>  (36) 
IC50

>  <target_chembl_id>  (36) 
CHEMBL1867

>  <data_validity_comment>  (36) 
None

>  <published_value>  (36) 
57

>  <document_year>  (36) 
2005

>  <target_pref_name>  (36) 
Alpha-2a adrenergic receptor

>  <assay_chembl_id>  (36) 
CHEMBL831139

>  <standard_relation>  (36) 
=

>  <assay_description>  (36) 
Inhibitory activity against alpha-2A adrenergic receptor by using [3H]MK-912 as radioligand expressed in COS-1 cells

>  <published_relation>  (36) 
=

>  <standard_value>  (36) 
57

>  <qudt_units>  (36) 
http://www.openphacts.org/units/Nanomolar

>  <target_tax_id>  (36) 
9606

>  <bao_label>  (36) 
cell-based format

>  <published_units>  (36) 
nM

>  <pchembl_value>  (36) 
7.24

>  <published_type>  (36) 
IC50

>  <activity_comment>  (36) 
None

$$$$

     RDKit          

 33 36  0  0  0  0  0  0  0  0999 V2000
    0.0000    0.0000    0.0000 C   0  0  0  0  0  0  0  0  0  0  0  0
    0.0000    0.0000    0.0000 O   0  0  0  0  0  0  0  0  0  0  0  0
    0.0000    0.0000    0.0000 C   0  0  0  0  0  0  0  0  0  0  0  0
    0.0000    0.0000    0.0000 C   0  0  0  0  0  0  0  0  0  0  0  0
    0.0000    0.0000    0.0000 C   0  0  0  0  0  0  0  0  0  0  0  0
    0.0000    0.0000    0.0000 O   0  0  0  0  0  0  0  0  0  0  0  0
    0.0000    0.0000    0.0000 C   0  0  0  0  0  0  0  0  0  0  0  0
    0.0000    0.0000    0.0000 C   0  0  0  0  0  0  0  0  0  0  0  0
    0.0000    0.0000    0.0000 C   0  0  0  0  0  0  0  0  0  0  0  0
    0.0000    0.0000    0.0000 C   0  0  0  0  0  0  0  0  0  0  0  0
    0.0000    0.0000    0.0000 C   0  0  0  0  0  0  0  0  0  0  0  0
    0.0000    0.0000    0.0000 O   0  0  0  0  0  0  0  0  0  0  0  0
    0.0000    0.0000    0.0000 N   0  0  0  0  0  0  0  0  0  0  0  0
    0.0000    0.0000    0.0000 C   0  0  0  0  0  0  0  0  0  0  0  0
    0.0000    0.0000    0.0000 C   0  0  0  0  0  0  0  0  0  0  0  0
    0.0000    0.0000    0.0000 C   0  0  0  0  0  0  0  0  0  0  0  0
    0.0000    0.0000    0.0000 C   0  0  0  0  0  0  0  0  0  0  0  0
    0.0000    0.0000    0.0000 C   0  0  0  0  0  0  0  0  0  0  0  0
    0.0000    0.0000    0.0000 C   0  0  0  0  0  0  0  0  0  0  0  0
    0.0000    0.0000    0.0000 N   0  0  0  0  0  0  0  0  0  0  0  0
    0.0000    0.0000    0.0000 C   0  0  0  0  0  0  0  0  0  0  0  0
    0.0000    0.0000    0.0000 N   0  0  0  0  0  0  0  0  0  0  0  0
    0.0000    0.0000    0.0000 C   0  0  0  0  0  0  0  0  0  0  0  0
    0.0000    0.0000    0.0000 N   0  0  0  0  0  0  0  0  0  0  0  0
    0.0000    0.0000    0.0000 C   0  0  0  0  0  0  0  0  0  0  0  0
    0.0000    0.0000    0.0000 C   0  0  0  0  0  0  0  0  0  0  0  0
    0.0000    0.0000    0.0000 C   0  0  0  0  0  0  0  0  0  0  0  0
    0.0000    0.0000    0.0000 C   0  0  0  0  0  0  0  0  0  0  0  0
    0.0000    0.0000    0.0000 C   0  0  0  0  0  0  0  0  0  0  0  0
    0.0000    0.0000    0.0000 C   0  0  0  0  0  0  0  0  0  0  0  0
    0.0000    0.0000    0.0000 C   0  0  0  0  0  0  0  0  0  0  0  0
    0.0000    0.0000    0.0000 C   0  0  0  0  0  0  0  0  0  0  0  0
    0.0000    0.0000    0.0000 N   0  0  0  0  0  0  0  0  0  0  0  0
  1  2  1  0
  2  3  1  0
  3  4  2  0
  4  5  1  0
  5  6  1  0
  6  7  1  0
  5  8  2  0
  8  9  1  0
  9 10  2  0
  9 11  1  0
 11 12  2  0
 11 13  1  0
 13 14  1  0
 14 15  1  0
 15 16  1  0
 16 17  1  0
 17 18  1  0
 18 19  1  0
 17 20  1  0
 20 21  1  0
 21 22  2  0
 22 23  1  0
 23 24  1  0
 24 25  1  0
 24 26  1  0
 23 27  2  0
 27 28  1  0
 28 29  2  0
 29 30  1  0
 30 31  2  0
 31 32  1  0
 32 33  2  0
 10  3  1  0
 19 14  1  0
 33 21  1  0
 32 27  1  0
M  END
>  <pIC50>  (37) 
7.15

>  <ChEMBL_ID>  (37) 
CHEMBL360081

>  <document_journal>  (37) 
Bioorg. Med. Chem. Lett.

>  <bao_endpoint>  (37) 
BAO_0000190

>  <potential_duplicate>  (37) 
False

>  <uo_units>  (37) 
UO_0000065

>  <canonical_smiles>  (37) 
COc1cc(OC)cc(c1)C(=O)N[C@@H]2CC[C@@H](CC2)Nc3nc(N(C)C)c4ccccc4n3

>  <parent_molecule_chembl_id>  (37) 
CHEMBL360081

>  <assay_type>  (37) 
B

>  <src_id>  (37) 
1

>  <ligand_efficiency>  (37) 
{u'le': u'0.3', u'bei': u'15.9', u'sei': u'8.07', u'lle': u'2.75'}

>  <standard_flag>  (37) 
True

>  <molecule_chembl_id>  (37) 
CHEMBL360081

>  <target_organism>  (37) 
Homo sapiens

>  <standard_units>  (37) 
nM

>  <record_id>  (37) 
368221

>  <document_chembl_id>  (37) 
CHEMBL1142793

>  <bao_format>  (37) 
BAO_0000219

>  <data_validity_description>  (37) 
None

>  <activity_id>  (37) 
1429328

>  <standard_type>  (37) 
IC50

>  <target_chembl_id>  (37) 
CHEMBL1867

>  <data_validity_comment>  (37) 
None

>  <published_value>  (37) 
71

>  <document_year>  (37) 
2005

>  <target_pref_name>  (37) 
Alpha-2a adrenergic receptor

>  <assay_chembl_id>  (37) 
CHEMBL831139

>  <standard_relation>  (37) 
=

>  <assay_description>  (37) 
Inhibitory activity against alpha-2A adrenergic receptor by using [3H]MK-912 as radioligand expressed in COS-1 cells

>  <published_relation>  (37) 
=

>  <standard_value>  (37) 
71

>  <qudt_units>  (37) 
http://www.openphacts.org/units/Nanomolar

>  <target_tax_id>  (37) 
9606

>  <bao_label>  (37) 
cell-based format

>  <published_units>  (37) 
nM

>  <pchembl_value>  (37) 
7.15

>  <published_type>  (37) 
IC50

>  <activity_comment>  (37) 
None

$$$$

     RDKit          

 35 38  0  0  0  0  0  0  0  0999 V2000
    0.0000    0.0000    0.0000 C   0  0  0  0  0  0  0  0  0  0  0  0
    0.0000    0.0000    0.0000 N   0  0  0  0  0  0  0  0  0  0  0  0
    0.0000    0.0000    0.0000 C   0  0  0  0  0  0  0  0  0  0  0  0
    0.0000    0.0000    0.0000 C   0  0  0  0  0  0  0  0  0  0  0  0
    0.0000    0.0000    0.0000 N   0  0  0  0  0  0  0  0  0  0  0  0
    0.0000    0.0000    0.0000 C   0  0  0  0  0  0  0  0  0  0  0  0
    0.0000    0.0000    0.0000 N   0  0  0  0  0  0  0  0  0  0  0  0
    0.0000    0.0000    0.0000 C   0  0  0  0  0  0  0  0  0  0  0  0
    0.0000    0.0000    0.0000 C   0  0  0  0  0  0  0  0  0  0  0  0
    0.0000    0.0000    0.0000 C   0  0  0  0  0  0  0  0  0  0  0  0
    0.0000    0.0000    0.0000 C   0  0  0  0  0  0  0  0  0  0  0  0
    0.0000    0.0000    0.0000 C   0  0  0  0  0  0  0  0  0  0  0  0
    0.0000    0.0000    0.0000 C   0  0  0  0  0  0  0  0  0  0  0  0
    0.0000    0.0000    0.0000 N   0  0  0  0  0  0  0  0  0  0  0  0
    0.0000    0.0000    0.0000 C   0  0  0  0  0  0  0  0  0  0  0  0
    0.0000    0.0000    0.0000 O   0  0  0  0  0  0  0  0  0  0  0  0
    0.0000    0.0000    0.0000 C   0  0  0  0  0  0  0  0  0  0  0  0
    0.0000    0.0000    0.0000 C   0  0  0  0  0  0  0  0  0  0  0  0
    0.0000    0.0000    0.0000 C   0  0  0  0  0  0  0  0  0  0  0  0
    0.0000    0.0000    0.0000 C   0  0  0  0  0  0  0  0  0  0  0  0
    0.0000    0.0000    0.0000 Br  0  0  0  0  0  0  0  0  0  0  0  0
    0.0000    0.0000    0.0000 C   0  0  0  0  0  0  0  0  0  0  0  0
    0.0000    0.0000    0.0000 C   0  0  0  0  0  0  0  0  0  0  0  0
    0.0000    0.0000    0.0000 O   0  0  0  0  0  0  0  0  0  0  0  0
    0.0000    0.0000    0.0000 C   0  0  0  0  0  0  0  0  0  0  0  0
    0.0000    0.0000    0.0000 F   0  0  0  0  0  0  0  0  0  0  0  0
    0.0000    0.0000    0.0000 F   0  0  0  0  0  0  0  0  0  0  0  0
    0.0000    0.0000    0.0000 F   0  0  0  0  0  0  0  0  0  0  0  0
    0.0000    0.0000    0.0000 N   0  0  0  0  0  0  0  0  0  0  0  0
    0.0000    0.0000    0.0000 C   0  0  0  0  0  0  0  0  0  0  0  0
    0.0000    0.0000    0.0000 C   0  0  0  0  0  0  0  0  0  0  0  0
    0.0000    0.0000    0.0000 C   0  0  0  0  0  0  0  0  0  0  0  0
    0.0000    0.0000    0.0000 C   0  0  0  0  0  0  0  0  0  0  0  0
    0.0000    0.0000    0.0000 C   0  0  0  0  0  0  0  0  0  0  0  0
    0.0000    0.0000    0.0000 C   0  0  0  0  0  0  0  0  0  0  0  0
  1  2  1  0
  2  3  1  0
  2  4  1  0
  4  5  2  0
  5  6  1  0
  6  7  1  0
  7  8  1  0
  8  9  1  0
  9 10  1  0
 10 11  1  0
 11 12  1  0
 12 13  1  0
 11 14  1  0
 14 15  1  0
 15 16  2  0
 15 17  1  0
 17 18  2  0
 18 19  1  0
 19 20  2  0
 20 21  1  0
 20 22  1  0
 22 23  2  0
 23 24  1  0
 24 25  1  0
 25 26  1  0
 25 27  1  0
 25 28  1  0
  6 29  2  0
 29 30  1  0
 30 31  2  0
 31 32  1  0
 32 33  2  0
 33 34  1  0
 34 35  2  0
 35  4  1  0
 13  8  1  0
 23 17  1  0
 35 30  1  0
M  END
>  <pIC50>  (38) 
6.41

>  <ChEMBL_ID>  (38) 
CHEMBL181184

>  <document_journal>  (38) 
Bioorg. Med. Chem. Lett.

>  <bao_endpoint>  (38) 
BAO_0000190

>  <potential_duplicate>  (38) 
False

>  <uo_units>  (38) 
UO_0000065

>  <canonical_smiles>  (38) 
CN(C)c1nc(NC2CCC(CC2)NC(=O)c3ccc(Br)cc3OC(F)(F)F)nc4ccccc14

>  <parent_molecule_chembl_id>  (38) 
CHEMBL181184

>  <assay_type>  (38) 
B

>  <src_id>  (38) 
1

>  <ligand_efficiency>  (38) 
{u'le': u'0.25', u'bei': u'11.6', u'sei': u'8.07', u'lle': u'-0.89'}

>  <standard_flag>  (38) 
True

>  <molecule_chembl_id>  (38) 
CHEMBL181184

>  <target_organism>  (38) 
Homo sapiens

>  <standard_units>  (38) 
nM

>  <record_id>  (38) 
367620

>  <document_chembl_id>  (38) 
CHEMBL1142793

>  <bao_format>  (38) 
BAO_0000219

>  <data_validity_description>  (38) 
None

>  <activity_id>  (38) 
1429355

>  <standard_type>  (38) 
IC50

>  <target_chembl_id>  (38) 
CHEMBL1867

>  <data_validity_comment>  (38) 
None

>  <published_value>  (38) 
390

>  <document_year>  (38) 
2005

>  <target_pref_name>  (38) 
Alpha-2a adrenergic receptor

>  <assay_chembl_id>  (38) 
CHEMBL831139

>  <standard_relation>  (38) 
=

>  <assay_description>  (38) 
Inhibitory activity against alpha-2A adrenergic receptor by using [3H]MK-912 as radioligand expressed in COS-1 cells

>  <published_relation>  (38) 
=

>  <standard_value>  (38) 
390

>  <qudt_units>  (38) 
http://www.openphacts.org/units/Nanomolar

>  <target_tax_id>  (38) 
9606

>  <bao_label>  (38) 
cell-based format

>  <published_units>  (38) 
nM

>  <pchembl_value>  (38) 
6.41

>  <published_type>  (38) 
IC50

>  <activity_comment>  (38) 
None

$$$$

     RDKit          

 30 33  0  0  0  0  0  0  0  0999 V2000
    0.0000    0.0000    0.0000 C   0  0  0  0  0  0  0  0  0  0  0  0
    0.0000    0.0000    0.0000 N   0  0  0  0  0  0  0  0  0  0  0  0
    0.0000    0.0000    0.0000 C   0  0  0  0  0  0  0  0  0  0  0  0
    0.0000    0.0000    0.0000 C   0  0  0  0  0  0  0  0  0  0  0  0
    0.0000    0.0000    0.0000 N   0  0  0  0  0  0  0  0  0  0  0  0
    0.0000    0.0000    0.0000 C   0  0  0  0  0  0  0  0  0  0  0  0
    0.0000    0.0000    0.0000 N   0  0  0  0  0  0  0  0  0  0  0  0
    0.0000    0.0000    0.0000 C   0  0  0  0  0  0  0  0  0  0  0  0
    0.0000    0.0000    0.0000 C   0  0  0  0  0  0  0  0  0  0  0  0
    0.0000    0.0000    0.0000 C   0  0  0  0  0  0  0  0  0  0  0  0
    0.0000    0.0000    0.0000 C   0  0  0  0  0  0  0  0  0  0  0  0
    0.0000    0.0000    0.0000 C   0  0  0  0  0  0  0  0  0  0  0  0
    0.0000    0.0000    0.0000 C   0  0  0  0  0  0  0  0  0  0  0  0
    0.0000    0.0000    0.0000 N   0  0  0  0  0  0  0  0  0  0  0  0
    0.0000    0.0000    0.0000 C   0  0  0  0  0  0  0  0  0  0  0  0
    0.0000    0.0000    0.0000 O   0  0  0  0  0  0  0  0  0  0  0  0
    0.0000    0.0000    0.0000 C   0  0  0  0  0  0  0  0  0  0  0  0
    0.0000    0.0000    0.0000 C   0  0  0  0  0  0  0  0  0  0  0  0
    0.0000    0.0000    0.0000 C   0  0  0  0  0  0  0  0  0  0  0  0
    0.0000    0.0000    0.0000 C   0  0  0  0  0  0  0  0  0  0  0  0
    0.0000    0.0000    0.0000 C   0  0  0  0  0  0  0  0  0  0  0  0
    0.0000    0.0000    0.0000 Br  0  0  0  0  0  0  0  0  0  0  0  0
    0.0000    0.0000    0.0000 C   0  0  0  0  0  0  0  0  0  0  0  0
    0.0000    0.0000    0.0000 N   0  0  0  0  0  0  0  0  0  0  0  0
    0.0000    0.0000    0.0000 C   0  0  0  0  0  0  0  0  0  0  0  0
    0.0000    0.0000    0.0000 C   0  0  0  0  0  0  0  0  0  0  0  0
    0.0000    0.0000    0.0000 C   0  0  0  0  0  0  0  0  0  0  0  0
    0.0000    0.0000    0.0000 C   0  0  0  0  0  0  0  0  0  0  0  0
    0.0000    0.0000    0.0000 C   0  0  0  0  0  0  0  0  0  0  0  0
    0.0000    0.0000    0.0000 C   0  0  0  0  0  0  0  0  0  0  0  0
  1  2  1  0
  2  3  1  0
  2  4  1  0
  4  5  2  0
  5  6  1  0
  6  7  1  0
  7  8  1  0
  8  9  1  0
  9 10  1  0
 10 11  1  0
 11 12  1  0
 12 13  1  0
 11 14  1  0
 14 15  1  0
 15 16  2  0
 15 17  1  0
 17 18  2  0
 18 19  1  0
 19 20  2  0
 20 21  1  0
 21 22  1  0
 21 23  2  0
  6 24  2  0
 24 25  1  0
 25 26  2  0
 26 27  1  0
 27 28  2  0
 28 29  1  0
 29 30  2  0
 30  4  1  0
 13  8  1  0
 23 17  1  0
 30 25  1  0
M  END
>  <pIC50>  (39) 
7.2

>  <ChEMBL_ID>  (39) 
CHEMBL359510

>  <document_journal>  (39) 
Bioorg. Med. Chem. Lett.

>  <bao_endpoint>  (39) 
BAO_0000190

>  <potential_duplicate>  (39) 
False

>  <uo_units>  (39) 
UO_0000065

>  <canonical_smiles>  (39) 
CN(C)c1nc(N[C@@H]2CC[C@@H](CC2)NC(=O)c3cccc(Br)c3)nc4ccccc14

>  <parent_molecule_chembl_id>  (39) 
CHEMBL359510

>  <assay_type>  (39) 
B

>  <src_id>  (39) 
1

>  <ligand_efficiency>  (39) 
{u'le': u'0.33', u'bei': u'15.37', u'sei': u'10.26', u'lle': u'2.01'}

>  <standard_flag>  (39) 
True

>  <molecule_chembl_id>  (39) 
CHEMBL359510

>  <target_organism>  (39) 
Homo sapiens

>  <standard_units>  (39) 
nM

>  <record_id>  (39) 
368240

>  <document_chembl_id>  (39) 
CHEMBL1142793

>  <bao_format>  (39) 
BAO_0000219

>  <data_validity_description>  (39) 
None

>  <activity_id>  (39) 
1429388

>  <standard_type>  (39) 
IC50

>  <target_chembl_id>  (39) 
CHEMBL1867

>  <data_validity_comment>  (39) 
None

>  <published_value>  (39) 
63

>  <document_year>  (39) 
2005

>  <target_pref_name>  (39) 
Alpha-2a adrenergic receptor

>  <assay_chembl_id>  (39) 
CHEMBL831139

>  <standard_relation>  (39) 
=

>  <assay_description>  (39) 
Inhibitory activity against alpha-2A adrenergic receptor by using [3H]MK-912 as radioligand expressed in COS-1 cells

>  <published_relation>  (39) 
=

>  <standard_value>  (39) 
63

>  <qudt_units>  (39) 
http://www.openphacts.org/units/Nanomolar

>  <target_tax_id>  (39) 
9606

>  <bao_label>  (39) 
cell-based format

>  <published_units>  (39) 
nM

>  <pchembl_value>  (39) 
7.2

>  <published_type>  (39) 
IC50

>  <activity_comment>  (39) 
None

$$$$

     RDKit          

 37 40  0  0  0  0  0  0  0  0999 V2000
    0.0000    0.0000    0.0000 C   0  0  0  0  0  0  0  0  0  0  0  0
    0.0000    0.0000    0.0000 N   0  0  0  0  0  0  0  0  0  0  0  0
    0.0000    0.0000    0.0000 C   0  0  0  0  0  0  0  0  0  0  0  0
    0.0000    0.0000    0.0000 C   0  0  0  0  0  0  0  0  0  0  0  0
    0.0000    0.0000    0.0000 N   0  0  0  0  0  0  0  0  0  0  0  0
    0.0000    0.0000    0.0000 C   0  0  0  0  0  0  0  0  0  0  0  0
    0.0000    0.0000    0.0000 N   0  0  0  0  0  0  0  0  0  0  0  0
    0.0000    0.0000    0.0000 C   0  0  0  0  0  0  0  0  0  0  0  0
    0.0000    0.0000    0.0000 C   0  0  0  0  0  0  0  0  0  0  0  0
    0.0000    0.0000    0.0000 C   0  0  0  0  0  0  0  0  0  0  0  0
    0.0000    0.0000    0.0000 C   0  0  0  0  0  0  0  0  0  0  0  0
    0.0000    0.0000    0.0000 C   0  0  0  0  0  0  0  0  0  0  0  0
    0.0000    0.0000    0.0000 C   0  0  0  0  0  0  0  0  0  0  0  0
    0.0000    0.0000    0.0000 N   0  0  0  0  0  0  0  0  0  0  0  0
    0.0000    0.0000    0.0000 C   0  0  0  0  0  0  0  0  0  0  0  0
    0.0000    0.0000    0.0000 O   0  0  0  0  0  0  0  0  0  0  0  0
    0.0000    0.0000    0.0000 C   0  0  0  0  0  0  0  0  0  0  0  0
    0.0000    0.0000    0.0000 C   0  0  0  0  0  0  0  0  0  0  0  0
    0.0000    0.0000    0.0000 C   0  0  0  0  0  0  0  0  0  0  0  0
    0.0000    0.0000    0.0000 C   0  0  0  0  0  0  0  0  0  0  0  0
    0.0000    0.0000    0.0000 Br  0  0  0  0  0  0  0  0  0  0  0  0
    0.0000    0.0000    0.0000 C   0  0  0  0  0  0  0  0  0  0  0  0
    0.0000    0.0000    0.0000 C   0  0  0  0  0  0  0  0  0  0  0  0
    0.0000    0.0000    0.0000 O   0  0  0  0  0  0  0  0  0  0  0  0
    0.0000    0.0000    0.0000 C   0  0  0  0  0  0  0  0  0  0  0  0
    0.0000    0.0000    0.0000 F   0  0  0  0  0  0  0  0  0  0  0  0
    0.0000    0.0000    0.0000 F   0  0  0  0  0  0  0  0  0  0  0  0
    0.0000    0.0000    0.0000 F   0  0  0  0  0  0  0  0  0  0  0  0
    0.0000    0.0000    0.0000 C   0  0  0  0  0  0  0  0  0  0  0  0
    0.0000    0.0000    0.0000 C   0  0  0  0  0  0  0  0  0  0  0  0
    0.0000    0.0000    0.0000 N   0  0  0  0  0  0  0  0  0  0  0  0
    0.0000    0.0000    0.0000 C   0  0  0  0  0  0  0  0  0  0  0  0
    0.0000    0.0000    0.0000 C   0  0  0  0  0  0  0  0  0  0  0  0
    0.0000    0.0000    0.0000 C   0  0  0  0  0  0  0  0  0  0  0  0
    0.0000    0.0000    0.0000 C   0  0  0  0  0  0  0  0  0  0  0  0
    0.0000    0.0000    0.0000 C   0  0  0  0  0  0  0  0  0  0  0  0
    0.0000    0.0000    0.0000 C   0  0  0  0  0  0  0  0  0  0  0  0
  1  2  1  0
  2  3  1  0
  2  4  1  0
  4  5  2  0
  5  6  1  0
  6  7  1  0
  7  8  1  0
  8  9  1  0
  9 10  1  0
 10 11  1  0
 11 12  1  0
 12 13  1  0
 13 14  1  0
 14 15  1  0
 15 16  2  0
 15 17  1  0
 17 18  2  0
 18 19  1  0
 19 20  2  0
 20 21  1  0
 20 22  1  0
 22 23  2  0
 23 24  1  0
 24 25  1  0
 25 26  1  0
 25 27  1  0
 25 28  1  0
 12 29  1  0
 29 30  1  0
  6 31  2  0
 31 32  1  0
 32 33  2  0
 33 34  1  0
 34 35  2  0
 35 36  1  0
 36 37  2  0
 37  4  1  0
 30  9  1  0
 23 17  1  0
 37 32  1  0
M  END
>  <pIC50>  (40) 
8.0

>  <ChEMBL_ID>  (40) 
CHEMBL367355

>  <document_journal>  (40) 
Bioorg. Med. Chem. Lett.

>  <bao_endpoint>  (40) 
BAO_0000190

>  <potential_duplicate>  (40) 
False

>  <uo_units>  (40) 
UO_0000065

>  <canonical_smiles>  (40) 
CN(C)c1nc(NCC2CCC(CNC(=O)c3ccc(Br)cc3OC(F)(F)F)CC2)nc4ccccc14

>  <parent_molecule_chembl_id>  (40) 
CHEMBL367355

>  <assay_type>  (40) 
B

>  <src_id>  (40) 
1

>  <ligand_efficiency>  (40) 
{u'le': u'0.3', u'bei': u'13.79', u'sei': u'10.08', u'lle': u'0.03'}

>  <standard_flag>  (40) 
True

>  <molecule_chembl_id>  (40) 
CHEMBL367355

>  <target_organism>  (40) 
Homo sapiens

>  <standard_units>  (40) 
nM

>  <record_id>  (40) 
367698

>  <document_chembl_id>  (40) 
CHEMBL1142793

>  <bao_format>  (40) 
BAO_0000219

>  <data_validity_description>  (40) 
None

>  <activity_id>  (40) 
1429617

>  <standard_type>  (40) 
IC50

>  <target_chembl_id>  (40) 
CHEMBL1867

>  <data_validity_comment>  (40) 
None

>  <published_value>  (40) 
9.9

>  <document_year>  (40) 
2005

>  <target_pref_name>  (40) 
Alpha-2a adrenergic receptor

>  <assay_chembl_id>  (40) 
CHEMBL831139

>  <standard_relation>  (40) 
=

>  <assay_description>  (40) 
Inhibitory activity against alpha-2A adrenergic receptor by using [3H]MK-912 as radioligand expressed in COS-1 cells

>  <published_relation>  (40) 
=

>  <standard_value>  (40) 
9.9

>  <qudt_units>  (40) 
http://www.openphacts.org/units/Nanomolar

>  <target_tax_id>  (40) 
9606

>  <bao_label>  (40) 
cell-based format

>  <published_units>  (40) 
nM

>  <pchembl_value>  (40) 
8

>  <published_type>  (40) 
IC50

>  <activity_comment>  (40) 
None

$$$$

     RDKit          

 36 39  0  0  0  0  0  0  0  0999 V2000
    0.0000    0.0000    0.0000 C   0  0  0  0  0  0  0  0  0  0  0  0
    0.0000    0.0000    0.0000 N   0  0  0  0  0  0  0  0  0  0  0  0
    0.0000    0.0000    0.0000 C   0  0  0  0  0  0  0  0  0  0  0  0
    0.0000    0.0000    0.0000 C   0  0  0  0  0  0  0  0  0  0  0  0
    0.0000    0.0000    0.0000 N   0  0  0  0  0  0  0  0  0  0  0  0
    0.0000    0.0000    0.0000 C   0  0  0  0  0  0  0  0  0  0  0  0
    0.0000    0.0000    0.0000 N   0  0  0  0  0  0  0  0  0  0  0  0
    0.0000    0.0000    0.0000 C   0  0  0  0  0  0  0  0  0  0  0  0
    0.0000    0.0000    0.0000 C   0  0  0  0  0  0  0  0  0  0  0  0
    0.0000    0.0000    0.0000 C   0  0  0  0  0  0  0  0  0  0  0  0
    0.0000    0.0000    0.0000 C   0  0  0  0  0  0  0  0  0  0  0  0
    0.0000    0.0000    0.0000 C   0  0  0  0  0  0  0  0  0  0  0  0
    0.0000    0.0000    0.0000 C   0  0  0  0  0  0  0  0  0  0  0  0
    0.0000    0.0000    0.0000 N   0  0  0  0  0  0  0  0  0  0  0  0
    0.0000    0.0000    0.0000 C   0  0  0  0  0  0  0  0  0  0  0  0
    0.0000    0.0000    0.0000 C   0  0  0  0  0  0  0  0  0  0  0  0
    0.0000    0.0000    0.0000 C   0  0  0  0  0  0  0  0  0  0  0  0
    0.0000    0.0000    0.0000 C   0  0  0  0  0  0  0  0  0  0  0  0
    0.0000    0.0000    0.0000 C   0  0  0  0  0  0  0  0  0  0  0  0
    0.0000    0.0000    0.0000 Br  0  0  0  0  0  0  0  0  0  0  0  0
    0.0000    0.0000    0.0000 C   0  0  0  0  0  0  0  0  0  0  0  0
    0.0000    0.0000    0.0000 C   0  0  0  0  0  0  0  0  0  0  0  0
    0.0000    0.0000    0.0000 O   0  0  0  0  0  0  0  0  0  0  0  0
    0.0000    0.0000    0.0000 C   0  0  0  0  0  0  0  0  0  0  0  0
    0.0000    0.0000    0.0000 F   0  0  0  0  0  0  0  0  0  0  0  0
    0.0000    0.0000    0.0000 F   0  0  0  0  0  0  0  0  0  0  0  0
    0.0000    0.0000    0.0000 F   0  0  0  0  0  0  0  0  0  0  0  0
    0.0000    0.0000    0.0000 C   0  0  0  0  0  0  0  0  0  0  0  0
    0.0000    0.0000    0.0000 C   0  0  0  0  0  0  0  0  0  0  0  0
    0.0000    0.0000    0.0000 N   0  0  0  0  0  0  0  0  0  0  0  0
    0.0000    0.0000    0.0000 C   0  0  0  0  0  0  0  0  0  0  0  0
    0.0000    0.0000    0.0000 C   0  0  0  0  0  0  0  0  0  0  0  0
    0.0000    0.0000    0.0000 C   0  0  0  0  0  0  0  0  0  0  0  0
    0.0000    0.0000    0.0000 C   0  0  0  0  0  0  0  0  0  0  0  0
    0.0000    0.0000    0.0000 C   0  0  0  0  0  0  0  0  0  0  0  0
    0.0000    0.0000    0.0000 C   0  0  0  0  0  0  0  0  0  0  0  0
  1  2  1  0
  2  3  1  0
  2  4  1  0
  4  5  2  0
  5  6  1  0
  6  7  1  0
  7  8  1  0
  8  9  1  0
  9 10  1  0
 10 11  1  0
 11 12  1  0
 12 13  1  0
 13 14  1  0
 14 15  1  0
 15 16  1  0
 16 17  2  0
 17 18  1  0
 18 19  2  0
 19 20  1  0
 19 21  1  0
 21 22  2  0
 22 23  1  0
 23 24  1  0
 24 25  1  0
 24 26  1  0
 24 27  1  0
 12 28  1  0
 28 29  1  0
  6 30  2  0
 30 31  1  0
 31 32  2  0
 32 33  1  0
 33 34  2  0
 34 35  1  0
 35 36  2  0
 36  4  1  0
 29  9  1  0
 22 16  1  0
 36 31  1  0
M  END
>  <pIC50>  (41) 
7.51

>  <ChEMBL_ID>  (41) 
CHEMBL360117

>  <document_journal>  (41) 
Bioorg. Med. Chem. Lett.

>  <bao_endpoint>  (41) 
BAO_0000190

>  <potential_duplicate>  (41) 
False

>  <uo_units>  (41) 
UO_0000065

>  <canonical_smiles>  (41) 
CN(C)c1nc(NCC2CCC(CNCc3ccc(Br)cc3OC(F)(F)F)CC2)nc4ccccc14

>  <parent_molecule_chembl_id>  (41) 
CHEMBL360117

>  <assay_type>  (41) 
B

>  <src_id>  (41) 
1

>  <ligand_efficiency>  (41) 
{u'le': u'0.28', u'bei': u'13.26', u'sei': u'12.05', u'lle': u'-0.79'}

>  <standard_flag>  (41) 
True

>  <molecule_chembl_id>  (41) 
CHEMBL360117

>  <target_organism>  (41) 
Homo sapiens

>  <standard_units>  (41) 
nM

>  <record_id>  (41) 
367631

>  <document_chembl_id>  (41) 
CHEMBL1142793

>  <bao_format>  (41) 
BAO_0000219

>  <data_validity_description>  (41) 
None

>  <activity_id>  (41) 
1429750

>  <standard_type>  (41) 
IC50

>  <target_chembl_id>  (41) 
CHEMBL1867

>  <data_validity_comment>  (41) 
None

>  <published_value>  (41) 
31

>  <document_year>  (41) 
2005

>  <target_pref_name>  (41) 
Alpha-2a adrenergic receptor

>  <assay_chembl_id>  (41) 
CHEMBL831139

>  <standard_relation>  (41) 
=

>  <assay_description>  (41) 
Inhibitory activity against alpha-2A adrenergic receptor by using [3H]MK-912 as radioligand expressed in COS-1 cells

>  <published_relation>  (41) 
=

>  <standard_value>  (41) 
31

>  <qudt_units>  (41) 
http://www.openphacts.org/units/Nanomolar

>  <target_tax_id>  (41) 
9606

>  <bao_label>  (41) 
cell-based format

>  <published_units>  (41) 
nM

>  <pchembl_value>  (41) 
7.51

>  <published_type>  (41) 
IC50

>  <activity_comment>  (41) 
None

$$$$

     RDKit          

 34 37  0  0  0  0  0  0  0  0999 V2000
    0.0000    0.0000    0.0000 C   0  0  0  0  0  0  0  0  0  0  0  0
    0.0000    0.0000    0.0000 N   0  0  0  0  0  0  0  0  0  0  0  0
    0.0000    0.0000    0.0000 C   0  0  0  0  0  0  0  0  0  0  0  0
    0.0000    0.0000    0.0000 C   0  0  0  0  0  0  0  0  0  0  0  0
    0.0000    0.0000    0.0000 N   0  0  0  0  0  0  0  0  0  0  0  0
    0.0000    0.0000    0.0000 C   0  0  0  0  0  0  0  0  0  0  0  0
    0.0000    0.0000    0.0000 N   0  0  0  0  0  0  0  0  0  0  0  0
    0.0000    0.0000    0.0000 C   0  0  0  0  0  0  0  0  0  0  0  0
    0.0000    0.0000    0.0000 C   0  0  0  0  0  0  0  0  0  0  0  0
    0.0000    0.0000    0.0000 C   0  0  0  0  0  0  0  0  0  0  0  0
    0.0000    0.0000    0.0000 C   0  0  0  0  0  0  0  0  0  0  0  0
    0.0000    0.0000    0.0000 C   0  0  0  0  0  0  0  0  0  0  0  0
    0.0000    0.0000    0.0000 C   0  0  0  0  0  0  0  0  0  0  0  0
    0.0000    0.0000    0.0000 N   0  0  0  0  0  0  0  0  0  0  0  0
    0.0000    0.0000    0.0000 C   0  0  0  0  0  0  0  0  0  0  0  0
    0.0000    0.0000    0.0000 C   0  0  0  0  0  0  0  0  0  0  0  0
    0.0000    0.0000    0.0000 C   0  0  0  0  0  0  0  0  0  0  0  0
    0.0000    0.0000    0.0000 C   0  0  0  0  0  0  0  0  0  0  0  0
    0.0000    0.0000    0.0000 C   0  0  0  0  0  0  0  0  0  0  0  0
    0.0000    0.0000    0.0000 Br  0  0  0  0  0  0  0  0  0  0  0  0
    0.0000    0.0000    0.0000 C   0  0  0  0  0  0  0  0  0  0  0  0
    0.0000    0.0000    0.0000 C   0  0  0  0  0  0  0  0  0  0  0  0
    0.0000    0.0000    0.0000 O   0  0  0  0  0  0  0  0  0  0  0  0
    0.0000    0.0000    0.0000 C   0  0  0  0  0  0  0  0  0  0  0  0
    0.0000    0.0000    0.0000 F   0  0  0  0  0  0  0  0  0  0  0  0
    0.0000    0.0000    0.0000 F   0  0  0  0  0  0  0  0  0  0  0  0
    0.0000    0.0000    0.0000 F   0  0  0  0  0  0  0  0  0  0  0  0
    0.0000    0.0000    0.0000 N   0  0  0  0  0  0  0  0  0  0  0  0
    0.0000    0.0000    0.0000 C   0  0  0  0  0  0  0  0  0  0  0  0
    0.0000    0.0000    0.0000 C   0  0  0  0  0  0  0  0  0  0  0  0
    0.0000    0.0000    0.0000 C   0  0  0  0  0  0  0  0  0  0  0  0
    0.0000    0.0000    0.0000 C   0  0  0  0  0  0  0  0  0  0  0  0
    0.0000    0.0000    0.0000 C   0  0  0  0  0  0  0  0  0  0  0  0
    0.0000    0.0000    0.0000 C   0  0  0  0  0  0  0  0  0  0  0  0
  1  2  1  0
  2  3  1  0
  2  4  1  0
  4  5  2  0
  5  6  1  0
  6  7  1  0
  7  8  1  0
  8  9  1  0
  9 10  1  0
 10 11  1  0
 11 12  1  0
 12 13  1  0
 11 14  1  0
 14 15  1  0
 15 16  1  0
 16 17  2  0
 17 18  1  0
 18 19  2  0
 19 20  1  0
 19 21  1  0
 21 22  2  0
 22 23  1  0
 23 24  1  0
 24 25  1  0
 24 26  1  0
 24 27  1  0
  6 28  2  0
 28 29  1  0
 29 30  2  0
 30 31  1  0
 31 32  2  0
 32 33  1  0
 33 34  2  0
 34  4  1  0
 13  8  1  0
 22 16  1  0
 34 29  1  0
M  END
>  <pIC50>  (42) 
6.77

>  <ChEMBL_ID>  (42) 
CHEMBL178084

>  <document_journal>  (42) 
Bioorg. Med. Chem. Lett.

>  <bao_endpoint>  (42) 
BAO_0000190

>  <potential_duplicate>  (42) 
False

>  <uo_units>  (42) 
UO_0000065

>  <canonical_smiles>  (42) 
CN(C)c1nc(NC2CCC(CC2)NCc3ccc(Br)cc3OC(F)(F)F)nc4ccccc14

>  <parent_molecule_chembl_id>  (42) 
CHEMBL178084

>  <assay_type>  (42) 
B

>  <src_id>  (42) 
1

>  <ligand_efficiency>  (42) 
{u'le': u'0.27', u'bei': u'12.57', u'sei': u'10.86', u'lle': u'-0.86'}

>  <standard_flag>  (42) 
True

>  <molecule_chembl_id>  (42) 
CHEMBL178084

>  <target_organism>  (42) 
Homo sapiens

>  <standard_units>  (42) 
nM

>  <record_id>  (42) 
368195

>  <document_chembl_id>  (42) 
CHEMBL1142793

>  <bao_format>  (42) 
BAO_0000219

>  <data_validity_description>  (42) 
None

>  <activity_id>  (42) 
1429795

>  <standard_type>  (42) 
IC50

>  <target_chembl_id>  (42) 
CHEMBL1867

>  <data_validity_comment>  (42) 
None

>  <published_value>  (42) 
170

>  <document_year>  (42) 
2005

>  <target_pref_name>  (42) 
Alpha-2a adrenergic receptor

>  <assay_chembl_id>  (42) 
CHEMBL831139

>  <standard_relation>  (42) 
=

>  <assay_description>  (42) 
Inhibitory activity against alpha-2A adrenergic receptor by using [3H]MK-912 as radioligand expressed in COS-1 cells

>  <published_relation>  (42) 
=

>  <standard_value>  (42) 
170

>  <qudt_units>  (42) 
http://www.openphacts.org/units/Nanomolar

>  <target_tax_id>  (42) 
9606

>  <bao_label>  (42) 
cell-based format

>  <published_units>  (42) 
nM

>  <pchembl_value>  (42) 
6.77

>  <published_type>  (42) 
IC50

>  <activity_comment>  (42) 
None

$$$$

     RDKit          

 30 33  0  0  0  0  0  0  0  0999 V2000
    0.0000    0.0000    0.0000 C   0  0  0  0  0  0  0  0  0  0  0  0
    0.0000    0.0000    0.0000 N   0  0  0  0  0  0  0  0  0  0  0  0
    0.0000    0.0000    0.0000 C   0  0  0  0  0  0  0  0  0  0  0  0
    0.0000    0.0000    0.0000 C   0  0  0  0  0  0  0  0  0  0  0  0
    0.0000    0.0000    0.0000 N   0  0  0  0  0  0  0  0  0  0  0  0
    0.0000    0.0000    0.0000 C   0  0  0  0  0  0  0  0  0  0  0  0
    0.0000    0.0000    0.0000 N   0  0  0  0  0  0  0  0  0  0  0  0
    0.0000    0.0000    0.0000 C   0  0  0  0  0  0  0  0  0  0  0  0
    0.0000    0.0000    0.0000 C   0  0  0  0  0  0  0  0  0  0  0  0
    0.0000    0.0000    0.0000 C   0  0  0  0  0  0  0  0  0  0  0  0
    0.0000    0.0000    0.0000 C   0  0  0  0  0  0  0  0  0  0  0  0
    0.0000    0.0000    0.0000 C   0  0  0  0  0  0  0  0  0  0  0  0
    0.0000    0.0000    0.0000 C   0  0  0  0  0  0  0  0  0  0  0  0
    0.0000    0.0000    0.0000 N   0  0  0  0  0  0  0  0  0  0  0  0
    0.0000    0.0000    0.0000 C   0  0  0  0  0  0  0  0  0  0  0  0
    0.0000    0.0000    0.0000 O   0  0  0  0  0  0  0  0  0  0  0  0
    0.0000    0.0000    0.0000 C   0  0  0  0  0  0  0  0  0  0  0  0
    0.0000    0.0000    0.0000 C   0  0  0  0  0  0  0  0  0  0  0  0
    0.0000    0.0000    0.0000 C   0  0  0  0  0  0  0  0  0  0  0  0
    0.0000    0.0000    0.0000 C   0  0  0  0  0  0  0  0  0  0  0  0
    0.0000    0.0000    0.0000 C   0  0  0  0  0  0  0  0  0  0  0  0
    0.0000    0.0000    0.0000 C   0  0  0  0  0  0  0  0  0  0  0  0
    0.0000    0.0000    0.0000 C   0  0  0  0  0  0  0  0  0  0  0  0
    0.0000    0.0000    0.0000 N   0  0  0  0  0  0  0  0  0  0  0  0
    0.0000    0.0000    0.0000 C   0  0  0  0  0  0  0  0  0  0  0  0
    0.0000    0.0000    0.0000 C   0  0  0  0  0  0  0  0  0  0  0  0
    0.0000    0.0000    0.0000 C   0  0  0  0  0  0  0  0  0  0  0  0
    0.0000    0.0000    0.0000 C   0  0  0  0  0  0  0  0  0  0  0  0
    0.0000    0.0000    0.0000 C   0  0  0  0  0  0  0  0  0  0  0  0
    0.0000    0.0000    0.0000 C   0  0  0  0  0  0  0  0  0  0  0  0
  1  2  1  0
  2  3  1  0
  2  4  1  0
  4  5  2  0
  5  6  1  0
  6  7  1  0
  7  8  1  0
  8  9  1  0
  9 10  1  0
 10 11  1  0
 11 12  1  0
 12 13  1  0
 11 14  1  0
 14 15  1  0
 15 16  2  0
 15 17  1  0
 17 18  2  0
 18 19  1  0
 19 20  2  0
 20 21  1  0
 21 22  1  0
 21 23  2  0
  6 24  2  0
 24 25  1  0
 25 26  2  0
 26 27  1  0
 27 28  2  0
 28 29  1  0
 29 30  2  0
 30  4  1  0
 13  8  1  0
 23 17  1  0
 30 25  1  0
M  END
>  <pIC50>  (43) 
6.96

>  <ChEMBL_ID>  (43) 
CHEMBL180962

>  <document_journal>  (43) 
Bioorg. Med. Chem. Lett.

>  <bao_endpoint>  (43) 
BAO_0000190

>  <potential_duplicate>  (43) 
False

>  <uo_units>  (43) 
UO_0000065

>  <canonical_smiles>  (43) 
CN(C)c1nc(N[C@@H]2CC[C@@H](CC2)NC(=O)c3cccc(C)c3)nc4ccccc14

>  <parent_molecule_chembl_id>  (43) 
CHEMBL180962

>  <assay_type>  (43) 
B

>  <src_id>  (43) 
1

>  <ligand_efficiency>  (43) 
{u'le': u'0.32', u'bei': u'17.24', u'sei': u'9.92', u'lle': u'2.04'}

>  <standard_flag>  (43) 
True

>  <molecule_chembl_id>  (43) 
CHEMBL180962

>  <target_organism>  (43) 
Homo sapiens

>  <standard_units>  (43) 
nM

>  <record_id>  (43) 
368276

>  <document_chembl_id>  (43) 
CHEMBL1142793

>  <bao_format>  (43) 
BAO_0000219

>  <data_validity_description>  (43) 
None

>  <activity_id>  (43) 
1429824

>  <standard_type>  (43) 
IC50

>  <target_chembl_id>  (43) 
CHEMBL1867

>  <data_validity_comment>  (43) 
None

>  <published_value>  (43) 
110

>  <document_year>  (43) 
2005

>  <target_pref_name>  (43) 
Alpha-2a adrenergic receptor

>  <assay_chembl_id>  (43) 
CHEMBL831139

>  <standard_relation>  (43) 
=

>  <assay_description>  (43) 
Inhibitory activity against alpha-2A adrenergic receptor by using [3H]MK-912 as radioligand expressed in COS-1 cells

>  <published_relation>  (43) 
=

>  <standard_value>  (43) 
110

>  <qudt_units>  (43) 
http://www.openphacts.org/units/Nanomolar

>  <target_tax_id>  (43) 
9606

>  <bao_label>  (43) 
cell-based format

>  <published_units>  (43) 
nM

>  <pchembl_value>  (43) 
6.96

>  <published_type>  (43) 
IC50

>  <activity_comment>  (43) 
None

$$$$

     RDKit          

 33 36  0  0  0  0  0  0  0  0999 V2000
    0.0000    0.0000    0.0000 C   0  0  0  0  0  0  0  0  0  0  0  0
    0.0000    0.0000    0.0000 N   0  0  0  0  0  0  0  0  0  0  0  0
    0.0000    0.0000    0.0000 C   0  0  0  0  0  0  0  0  0  0  0  0
    0.0000    0.0000    0.0000 C   0  0  0  0  0  0  0  0  0  0  0  0
    0.0000    0.0000    0.0000 N   0  0  0  0  0  0  0  0  0  0  0  0
    0.0000    0.0000    0.0000 C   0  0  0  0  0  0  0  0  0  0  0  0
    0.0000    0.0000    0.0000 N   0  0  0  0  0  0  0  0  0  0  0  0
    0.0000    0.0000    0.0000 C   0  0  0  0  0  0  0  0  0  0  0  0
    0.0000    0.0000    0.0000 C   0  0  0  0  0  0  0  0  0  0  0  0
    0.0000    0.0000    0.0000 C   0  0  0  0  0  0  0  0  0  0  0  0
    0.0000    0.0000    0.0000 C   0  0  0  0  0  0  0  0  0  0  0  0
    0.0000    0.0000    0.0000 C   0  0  0  0  0  0  0  0  0  0  0  0
    0.0000    0.0000    0.0000 C   0  0  0  0  0  0  0  0  0  0  0  0
    0.0000    0.0000    0.0000 N   0  0  0  0  0  0  0  0  0  0  0  0
    0.0000    0.0000    0.0000 C   0  0  0  0  0  0  0  0  0  0  0  0
    0.0000    0.0000    0.0000 O   0  0  0  0  0  0  0  0  0  0  0  0
    0.0000    0.0000    0.0000 C   0  0  0  0  0  0  0  0  0  0  0  0
    0.0000    0.0000    0.0000 C   0  0  0  0  0  0  0  0  0  0  0  0
    0.0000    0.0000    0.0000 C   0  0  0  0  0  0  0  0  0  0  0  0
    0.0000    0.0000    0.0000 C   0  0  0  0  0  0  0  0  0  0  0  0
    0.0000    0.0000    0.0000 C   0  0  0  0  0  0  0  0  0  0  0  0
    0.0000    0.0000    0.0000 C   0  0  0  0  0  0  0  0  0  0  0  0
    0.0000    0.0000    0.0000 C   0  0  0  0  0  0  0  0  0  0  0  0
    0.0000    0.0000    0.0000 F   0  0  0  0  0  0  0  0  0  0  0  0
    0.0000    0.0000    0.0000 F   0  0  0  0  0  0  0  0  0  0  0  0
    0.0000    0.0000    0.0000 F   0  0  0  0  0  0  0  0  0  0  0  0
    0.0000    0.0000    0.0000 N   0  0  0  0  0  0  0  0  0  0  0  0
    0.0000    0.0000    0.0000 C   0  0  0  0  0  0  0  0  0  0  0  0
    0.0000    0.0000    0.0000 C   0  0  0  0  0  0  0  0  0  0  0  0
    0.0000    0.0000    0.0000 C   0  0  0  0  0  0  0  0  0  0  0  0
    0.0000    0.0000    0.0000 C   0  0  0  0  0  0  0  0  0  0  0  0
    0.0000    0.0000    0.0000 C   0  0  0  0  0  0  0  0  0  0  0  0
    0.0000    0.0000    0.0000 C   0  0  0  0  0  0  0  0  0  0  0  0
  1  2  1  0
  2  3  1  0
  2  4  1  0
  4  5  2  0
  5  6  1  0
  6  7  1  0
  7  8  1  0
  8  9  1  0
  9 10  1  0
 10 11  1  0
 11 12  1  0
 12 13  1  0
 11 14  1  0
 14 15  1  0
 15 16  2  0
 15 17  1  0
 17 18  2  0
 18 19  1  0
 19 20  2  0
 20 21  1  0
 21 22  2  0
 21 23  1  0
 23 24  1  0
 23 25  1  0
 23 26  1  0
  6 27  2  0
 27 28  1  0
 28 29  2  0
 29 30  1  0
 30 31  2  0
 31 32  1  0
 32 33  2  0
 33  4  1  0
 13  8  1  0
 22 17  1  0
 33 28  1  0
M  END
>  <pIC50>  (44) 
7.22

>  <ChEMBL_ID>  (44) 
CHEMBL181632

>  <document_journal>  (44) 
Bioorg. Med. Chem. Lett.

>  <bao_endpoint>  (44) 
BAO_0000190

>  <potential_duplicate>  (44) 
False

>  <uo_units>  (44) 
UO_0000065

>  <canonical_smiles>  (44) 
CN(C)c1nc(N[C@@H]2CC[C@@H](CC2)NC(=O)c3cccc(c3)C(F)(F)F)nc4ccccc14

>  <parent_molecule_chembl_id>  (44) 
CHEMBL181632

>  <assay_type>  (44) 
B

>  <src_id>  (44) 
1

>  <ligand_efficiency>  (44) 
{u'le': u'0.3', u'bei': u'15.79', u'sei': u'10.29', u'lle': u'1.84'}

>  <standard_flag>  (44) 
True

>  <molecule_chembl_id>  (44) 
CHEMBL181632

>  <target_organism>  (44) 
Homo sapiens

>  <standard_units>  (44) 
nM

>  <record_id>  (44) 
368241

>  <document_chembl_id>  (44) 
CHEMBL1142793

>  <bao_format>  (44) 
BAO_0000219

>  <data_validity_description>  (44) 
None

>  <activity_id>  (44) 
1429956

>  <standard_type>  (44) 
IC50

>  <target_chembl_id>  (44) 
CHEMBL1867

>  <data_validity_comment>  (44) 
None

>  <published_value>  (44) 
60

>  <document_year>  (44) 
2005

>  <target_pref_name>  (44) 
Alpha-2a adrenergic receptor

>  <assay_chembl_id>  (44) 
CHEMBL831139

>  <standard_relation>  (44) 
=

>  <assay_description>  (44) 
Inhibitory activity against alpha-2A adrenergic receptor by using [3H]MK-912 as radioligand expressed in COS-1 cells

>  <published_relation>  (44) 
=

>  <standard_value>  (44) 
60

>  <qudt_units>  (44) 
http://www.openphacts.org/units/Nanomolar

>  <target_tax_id>  (44) 
9606

>  <bao_label>  (44) 
cell-based format

>  <published_units>  (44) 
nM

>  <pchembl_value>  (44) 
7.22

>  <published_type>  (44) 
IC50

>  <activity_comment>  (44) 
None

$$$$

     RDKit          

 37 40  0  0  0  0  0  0  0  0999 V2000
    0.0000    0.0000    0.0000 C   0  0  0  0  0  0  0  0  0  0  0  0
    0.0000    0.0000    0.0000 N   0  0  0  0  0  0  0  0  0  0  0  0
    0.0000    0.0000    0.0000 C   0  0  0  0  0  0  0  0  0  0  0  0
    0.0000    0.0000    0.0000 C   0  0  0  0  0  0  0  0  0  0  0  0
    0.0000    0.0000    0.0000 C   0  0  0  0  0  0  0  0  0  0  0  0
    0.0000    0.0000    0.0000 C   0  0  0  0  0  0  0  0  0  0  0  0
    0.0000    0.0000    0.0000 C   0  0  0  0  0  0  0  0  0  0  0  0
    0.0000    0.0000    0.0000 C   0  0  0  0  0  0  0  0  0  0  0  0
    0.0000    0.0000    0.0000 N   0  0  0  0  0  0  0  0  0  0  0  0
    0.0000    0.0000    0.0000 C   0  0  0  0  0  0  0  0  0  0  0  0
    0.0000    0.0000    0.0000 N   0  0  0  0  0  0  0  0  0  0  0  0
    0.0000    0.0000    0.0000 C   0  0  0  0  0  0  0  0  0  0  0  0
    0.0000    0.0000    0.0000 N   0  0  0  0  0  0  0  0  0  0  0  0
    0.0000    0.0000    0.0000 C   0  0  0  0  0  0  0  0  0  0  0  0
    0.0000    0.0000    0.0000 C   0  0  0  0  0  0  0  0  0  0  0  0
    0.0000    0.0000    0.0000 C   0  0  0  0  0  0  0  0  0  0  0  0
    0.0000    0.0000    0.0000 C   0  0  0  0  0  0  0  0  0  0  0  0
    0.0000    0.0000    0.0000 C   0  0  0  0  0  0  0  0  0  0  0  0
    0.0000    0.0000    0.0000 C   0  0  0  0  0  0  0  0  0  0  0  0
    0.0000    0.0000    0.0000 C   0  0  0  0  0  0  0  0  0  0  0  0
    0.0000    0.0000    0.0000 C   0  0  0  0  0  0  0  0  0  0  0  0
    0.0000    0.0000    0.0000 N   0  0  0  0  0  0  0  0  0  0  0  0
    0.0000    0.0000    0.0000 C   0  0  0  0  0  0  0  0  0  0  0  0
    0.0000    0.0000    0.0000 C   0  0  0  0  0  0  0  0  0  0  0  0
    0.0000    0.0000    0.0000 C   0  0  0  0  0  0  0  0  0  0  0  0
    0.0000    0.0000    0.0000 C   0  0  0  0  0  0  0  0  0  0  0  0
    0.0000    0.0000    0.0000 C   0  0  0  0  0  0  0  0  0  0  0  0
    0.0000    0.0000    0.0000 C   0  0  0  0  0  0  0  0  0  0  0  0
    0.0000    0.0000    0.0000 C   0  0  0  0  0  0  0  0  0  0  0  0
    0.0000    0.0000    0.0000 Br  0  0  0  0  0  0  0  0  0  0  0  0
    0.0000    0.0000    0.0000 C   0  0  0  0  0  0  0  0  0  0  0  0
    0.0000    0.0000    0.0000 C   0  0  0  0  0  0  0  0  0  0  0  0
    0.0000    0.0000    0.0000 O   0  0  0  0  0  0  0  0  0  0  0  0
    0.0000    0.0000    0.0000 C   0  0  0  0  0  0  0  0  0  0  0  0
    0.0000    0.0000    0.0000 F   0  0  0  0  0  0  0  0  0  0  0  0
    0.0000    0.0000    0.0000 F   0  0  0  0  0  0  0  0  0  0  0  0
    0.0000    0.0000    0.0000 F   0  0  0  0  0  0  0  0  0  0  0  0
  1  2  1  0
  2  3  1  0
  3  4  1  0
  4  5  1  0
  5  6  1  0
  6  7  1  0
  7  8  1  0
  8  9  1  0
  9 10  1  0
 10 11  2  0
 11 12  1  0
 12 13  1  0
 13 14  1  0
 13 15  1  0
 12 16  2  0
 16 17  1  0
 17 18  2  0
 18 19  1  0
 19 20  2  0
 20 21  1  0
 21 22  2  0
  7 23  1  0
 23 24  1  0
  2 25  1  0
 25 26  1  0
 26 27  2  0
 27 28  1  0
 28 29  2  0
 29 30  1  0
 29 31  1  0
 31 32  2  0
 32 33  1  0
 33 34  1  0
 34 35  1  0
 34 36  1  0
 34 37  1  0
 24  4  1  0
 22 10  1  0
 21 16  1  0
 32 26  1  0
M  END
>  <pIC50>  (45) 
7.36

>  <ChEMBL_ID>  (45) 
CHEMBL182235

>  <document_journal>  (45) 
Bioorg. Med. Chem. Lett.

>  <bao_endpoint>  (45) 
BAO_0000190

>  <potential_duplicate>  (45) 
False

>  <uo_units>  (45) 
UO_0000065

>  <canonical_smiles>  (45) 
CN(CC1CCC(CNc2nc(N(C)C)c3ccccc3n2)CC1)Cc4ccc(Br)cc4OC(F)(F)F

>  <parent_molecule_chembl_id>  (45) 
CHEMBL182235

>  <assay_type>  (45) 
B

>  <src_id>  (45) 
1

>  <ligand_efficiency>  (45) 
{u'le': u'0.27', u'bei': u'12.67', u'sei': u'13.75', u'lle': u'-1.47'}

>  <standard_flag>  (45) 
True

>  <molecule_chembl_id>  (45) 
CHEMBL182235

>  <target_organism>  (45) 
Homo sapiens

>  <standard_units>  (45) 
nM

>  <record_id>  (45) 
367677

>  <document_chembl_id>  (45) 
CHEMBL1142793

>  <bao_format>  (45) 
BAO_0000219

>  <data_validity_description>  (45) 
None

>  <activity_id>  (45) 
1430290

>  <standard_type>  (45) 
IC50

>  <target_chembl_id>  (45) 
CHEMBL1867

>  <data_validity_comment>  (45) 
None

>  <published_value>  (45) 
44

>  <document_year>  (45) 
2005

>  <target_pref_name>  (45) 
Alpha-2a adrenergic receptor

>  <assay_chembl_id>  (45) 
CHEMBL831139

>  <standard_relation>  (45) 
=

>  <assay_description>  (45) 
Inhibitory activity against alpha-2A adrenergic receptor by using [3H]MK-912 as radioligand expressed in COS-1 cells

>  <published_relation>  (45) 
=

>  <standard_value>  (45) 
44

>  <qudt_units>  (45) 
http://www.openphacts.org/units/Nanomolar

>  <target_tax_id>  (45) 
9606

>  <bao_label>  (45) 
cell-based format

>  <published_units>  (45) 
nM

>  <pchembl_value>  (45) 
7.36

>  <published_type>  (45) 
IC50

>  <activity_comment>  (45) 
None

$$$$

     RDKit          

 33 36  0  0  0  0  0  0  0  0999 V2000
    0.0000    0.0000    0.0000 C   0  0  0  0  0  0  0  0  0  0  0  0
    0.0000    0.0000    0.0000 N   0  0  0  0  0  0  0  0  0  0  0  0
    0.0000    0.0000    0.0000 C   0  0  0  0  0  0  0  0  0  0  0  0
    0.0000    0.0000    0.0000 C   0  0  0  0  0  0  0  0  0  0  0  0
    0.0000    0.0000    0.0000 N   0  0  0  0  0  0  0  0  0  0  0  0
    0.0000    0.0000    0.0000 C   0  0  0  0  0  0  0  0  0  0  0  0
    0.0000    0.0000    0.0000 N   0  0  0  0  0  0  0  0  0  0  0  0
    0.0000    0.0000    0.0000 C   0  0  0  0  0  0  0  0  0  0  0  0
    0.0000    0.0000    0.0000 C   0  0  0  0  0  0  0  0  0  0  0  0
    0.0000    0.0000    0.0000 C   0  0  0  0  0  0  0  0  0  0  0  0
    0.0000    0.0000    0.0000 N   0  0  0  0  0  0  0  0  0  0  0  0
    0.0000    0.0000    0.0000 C   0  0  0  0  0  0  0  0  0  0  0  0
    0.0000    0.0000    0.0000 C   0  0  0  0  0  0  0  0  0  0  0  0
    0.0000    0.0000    0.0000 C   0  0  0  0  0  0  0  0  0  0  0  0
    0.0000    0.0000    0.0000 C   0  0  0  0  0  0  0  0  0  0  0  0
    0.0000    0.0000    0.0000 C   0  0  0  0  0  0  0  0  0  0  0  0
    0.0000    0.0000    0.0000 Br  0  0  0  0  0  0  0  0  0  0  0  0
    0.0000    0.0000    0.0000 C   0  0  0  0  0  0  0  0  0  0  0  0
    0.0000    0.0000    0.0000 C   0  0  0  0  0  0  0  0  0  0  0  0
    0.0000    0.0000    0.0000 O   0  0  0  0  0  0  0  0  0  0  0  0
    0.0000    0.0000    0.0000 C   0  0  0  0  0  0  0  0  0  0  0  0
    0.0000    0.0000    0.0000 F   0  0  0  0  0  0  0  0  0  0  0  0
    0.0000    0.0000    0.0000 F   0  0  0  0  0  0  0  0  0  0  0  0
    0.0000    0.0000    0.0000 F   0  0  0  0  0  0  0  0  0  0  0  0
    0.0000    0.0000    0.0000 C   0  0  0  0  0  0  0  0  0  0  0  0
    0.0000    0.0000    0.0000 C   0  0  0  0  0  0  0  0  0  0  0  0
    0.0000    0.0000    0.0000 N   0  0  0  0  0  0  0  0  0  0  0  0
    0.0000    0.0000    0.0000 C   0  0  0  0  0  0  0  0  0  0  0  0
    0.0000    0.0000    0.0000 C   0  0  0  0  0  0  0  0  0  0  0  0
    0.0000    0.0000    0.0000 C   0  0  0  0  0  0  0  0  0  0  0  0
    0.0000    0.0000    0.0000 C   0  0  0  0  0  0  0  0  0  0  0  0
    0.0000    0.0000    0.0000 C   0  0  0  0  0  0  0  0  0  0  0  0
    0.0000    0.0000    0.0000 C   0  0  0  0  0  0  0  0  0  0  0  0
  1  2  1  0
  2  3  1  0
  2  4  1  0
  4  5  2  0
  5  6  1  0
  6  7  1  0
  7  8  1  0
  8  9  1  0
  9 10  1  0
 10 11  1  0
 11 12  1  0
 12 13  1  0
 13 14  2  0
 14 15  1  0
 15 16  2  0
 16 17  1  0
 16 18  1  0
 18 19  2  0
 19 20  1  0
 20 21  1  0
 21 22  1  0
 21 23  1  0
 21 24  1  0
 11 25  1  0
 25 26  1  0
  6 27  2  0
 27 28  1  0
 28 29  2  0
 29 30  1  0
 30 31  2  0
 31 32  1  0
 32 33  2  0
 33  4  1  0
 26  8  1  0
 19 13  1  0
 33 28  1  0
M  END
>  <pIC50>  (46) 
6.28

>  <ChEMBL_ID>  (46) 
CHEMBL360876

>  <document_journal>  (46) 
Bioorg. Med. Chem. Lett.

>  <bao_endpoint>  (46) 
BAO_0000190

>  <potential_duplicate>  (46) 
False

>  <uo_units>  (46) 
UO_0000065

>  <canonical_smiles>  (46) 
CN(C)c1nc(NC2CCN(Cc3ccc(Br)cc3OC(F)(F)F)CC2)nc4ccccc14

>  <parent_molecule_chembl_id>  (46) 
CHEMBL360876

>  <assay_type>  (46) 
B

>  <src_id>  (46) 
1

>  <ligand_efficiency>  (46) 
{u'le': u'0.26', u'bei': u'11.98', u'sei': u'11.74', u'lle': u'-0.7'}

>  <standard_flag>  (46) 
True

>  <molecule_chembl_id>  (46) 
CHEMBL360876

>  <target_organism>  (46) 
Homo sapiens

>  <standard_units>  (46) 
nM

>  <record_id>  (46) 
368137

>  <document_chembl_id>  (46) 
CHEMBL1142793

>  <bao_format>  (46) 
BAO_0000219

>  <data_validity_description>  (46) 
None

>  <activity_id>  (46) 
1430352

>  <standard_type>  (46) 
IC50

>  <target_chembl_id>  (46) 
CHEMBL1867

>  <data_validity_comment>  (46) 
None

>  <published_value>  (46) 
520

>  <document_year>  (46) 
2005

>  <target_pref_name>  (46) 
Alpha-2a adrenergic receptor

>  <assay_chembl_id>  (46) 
CHEMBL831139

>  <standard_relation>  (46) 
=

>  <assay_description>  (46) 
Inhibitory activity against alpha-2A adrenergic receptor by using [3H]MK-912 as radioligand expressed in COS-1 cells

>  <published_relation>  (46) 
=

>  <standard_value>  (46) 
520

>  <qudt_units>  (46) 
http://www.openphacts.org/units/Nanomolar

>  <target_tax_id>  (46) 
9606

>  <bao_label>  (46) 
cell-based format

>  <published_units>  (46) 
nM

>  <pchembl_value>  (46) 
6.28

>  <published_type>  (46) 
IC50

>  <activity_comment>  (46) 
None

$$$$

     RDKit          

 30 33  0  0  0  0  0  0  0  0999 V2000
    0.0000    0.0000    0.0000 C   0  0  0  0  0  0  0  0  0  0  0  0
    0.0000    0.0000    0.0000 N   0  0  0  0  0  0  0  0  0  0  0  0
    0.0000    0.0000    0.0000 C   0  0  0  0  0  0  0  0  0  0  0  0
    0.0000    0.0000    0.0000 C   0  0  0  0  0  0  0  0  0  0  0  0
    0.0000    0.0000    0.0000 N   0  0  0  0  0  0  0  0  0  0  0  0
    0.0000    0.0000    0.0000 C   0  0  0  0  0  0  0  0  0  0  0  0
    0.0000    0.0000    0.0000 N   0  0  0  0  0  0  0  0  0  0  0  0
    0.0000    0.0000    0.0000 C   0  0  0  0  0  0  0  0  0  0  0  0
    0.0000    0.0000    0.0000 C   0  0  0  0  0  0  0  0  0  0  0  0
    0.0000    0.0000    0.0000 C   0  0  0  0  0  0  0  0  0  0  0  0
    0.0000    0.0000    0.0000 C   0  0  0  0  0  0  0  0  0  0  0  0
    0.0000    0.0000    0.0000 C   0  0  0  0  0  0  0  0  0  0  0  0
    0.0000    0.0000    0.0000 C   0  0  0  0  0  0  0  0  0  0  0  0
    0.0000    0.0000    0.0000 N   0  0  0  0  0  0  0  0  0  0  0  0
    0.0000    0.0000    0.0000 C   0  0  0  0  0  0  0  0  0  0  0  0
    0.0000    0.0000    0.0000 O   0  0  0  0  0  0  0  0  0  0  0  0
    0.0000    0.0000    0.0000 C   0  0  0  0  0  0  0  0  0  0  0  0
    0.0000    0.0000    0.0000 C   0  0  0  0  0  0  0  0  0  0  0  0
    0.0000    0.0000    0.0000 C   0  0  0  0  0  0  0  0  0  0  0  0
    0.0000    0.0000    0.0000 C   0  0  0  0  0  0  0  0  0  0  0  0
    0.0000    0.0000    0.0000 C   0  0  0  0  0  0  0  0  0  0  0  0
    0.0000    0.0000    0.0000 F   0  0  0  0  0  0  0  0  0  0  0  0
    0.0000    0.0000    0.0000 C   0  0  0  0  0  0  0  0  0  0  0  0
    0.0000    0.0000    0.0000 N   0  0  0  0  0  0  0  0  0  0  0  0
    0.0000    0.0000    0.0000 C   0  0  0  0  0  0  0  0  0  0  0  0
    0.0000    0.0000    0.0000 C   0  0  0  0  0  0  0  0  0  0  0  0
    0.0000    0.0000    0.0000 C   0  0  0  0  0  0  0  0  0  0  0  0
    0.0000    0.0000    0.0000 C   0  0  0  0  0  0  0  0  0  0  0  0
    0.0000    0.0000    0.0000 C   0  0  0  0  0  0  0  0  0  0  0  0
    0.0000    0.0000    0.0000 C   0  0  0  0  0  0  0  0  0  0  0  0
  1  2  1  0
  2  3  1  0
  2  4  1  0
  4  5  2  0
  5  6  1  0
  6  7  1  0
  7  8  1  0
  8  9  1  0
  9 10  1  0
 10 11  1  0
 11 12  1  0
 12 13  1  0
 11 14  1  0
 14 15  1  0
 15 16  2  0
 15 17  1  0
 17 18  2  0
 18 19  1  0
 19 20  2  0
 20 21  1  0
 21 22  1  0
 21 23  2  0
  6 24  2  0
 24 25  1  0
 25 26  2  0
 26 27  1  0
 27 28  2  0
 28 29  1  0
 29 30  2  0
 30  4  1  0
 13  8  1  0
 23 17  1  0
 30 25  1  0
M  END
>  <pIC50>  (47) 
6.89

>  <ChEMBL_ID>  (47) 
CHEMBL362193

>  <document_journal>  (47) 
Bioorg. Med. Chem. Lett.

>  <bao_endpoint>  (47) 
BAO_0000190

>  <potential_duplicate>  (47) 
False

>  <uo_units>  (47) 
UO_0000065

>  <canonical_smiles>  (47) 
CN(C)c1nc(N[C@@H]2CC[C@@H](CC2)NC(=O)c3cccc(F)c3)nc4ccccc14

>  <parent_molecule_chembl_id>  (47) 
CHEMBL362193

>  <assay_type>  (47) 
B

>  <src_id>  (47) 
1

>  <ligand_efficiency>  (47) 
{u'le': u'0.31', u'bei': u'16.9', u'sei': u'9.82', u'lle': u'2.25'}

>  <standard_flag>  (47) 
True

>  <molecule_chembl_id>  (47) 
CHEMBL362193

>  <target_organism>  (47) 
Homo sapiens

>  <standard_units>  (47) 
nM

>  <record_id>  (47) 
368213

>  <document_chembl_id>  (47) 
CHEMBL1142793

>  <bao_format>  (47) 
BAO_0000219

>  <data_validity_description>  (47) 
None

>  <activity_id>  (47) 
1430482

>  <standard_type>  (47) 
IC50

>  <target_chembl_id>  (47) 
CHEMBL1867

>  <data_validity_comment>  (47) 
None

>  <published_value>  (47) 
130

>  <document_year>  (47) 
2005

>  <target_pref_name>  (47) 
Alpha-2a adrenergic receptor

>  <assay_chembl_id>  (47) 
CHEMBL831139

>  <standard_relation>  (47) 
=

>  <assay_description>  (47) 
Inhibitory activity against alpha-2A adrenergic receptor by using [3H]MK-912 as radioligand expressed in COS-1 cells

>  <published_relation>  (47) 
=

>  <standard_value>  (47) 
130

>  <qudt_units>  (47) 
http://www.openphacts.org/units/Nanomolar

>  <target_tax_id>  (47) 
9606

>  <bao_label>  (47) 
cell-based format

>  <published_units>  (47) 
nM

>  <pchembl_value>  (47) 
6.89

>  <published_type>  (47) 
IC50

>  <activity_comment>  (47) 
None

$$$$

     RDKit          

 31 34  0  0  0  0  0  0  0  0999 V2000
    0.0000    0.0000    0.0000 C   0  0  0  0  0  0  0  0  0  0  0  0
    0.0000    0.0000    0.0000 N   0  0  0  0  0  0  0  0  0  0  0  0
    0.0000    0.0000    0.0000 C   0  0  0  0  0  0  0  0  0  0  0  0
    0.0000    0.0000    0.0000 C   0  0  0  0  0  0  0  0  0  0  0  0
    0.0000    0.0000    0.0000 N   0  0  0  0  0  0  0  0  0  0  0  0
    0.0000    0.0000    0.0000 C   0  0  0  0  0  0  0  0  0  0  0  0
    0.0000    0.0000    0.0000 N   0  0  0  0  0  0  0  0  0  0  0  0
    0.0000    0.0000    0.0000 C   0  0  0  0  0  0  0  0  0  0  0  0
    0.0000    0.0000    0.0000 C   0  0  0  0  0  0  0  0  0  0  0  0
    0.0000    0.0000    0.0000 C   0  0  0  0  0  0  0  0  0  0  0  0
    0.0000    0.0000    0.0000 C   0  0  0  0  0  0  0  0  0  0  0  0
    0.0000    0.0000    0.0000 C   0  0  0  0  0  0  0  0  0  0  0  0
    0.0000    0.0000    0.0000 C   0  0  0  0  0  0  0  0  0  0  0  0
    0.0000    0.0000    0.0000 N   0  0  0  0  0  0  0  0  0  0  0  0
    0.0000    0.0000    0.0000 C   0  0  0  0  0  0  0  0  0  0  0  0
    0.0000    0.0000    0.0000 O   0  0  0  0  0  0  0  0  0  0  0  0
    0.0000    0.0000    0.0000 C   0  0  0  0  0  0  0  0  0  0  0  0
    0.0000    0.0000    0.0000 C   0  0  0  0  0  0  0  0  0  0  0  0
    0.0000    0.0000    0.0000 C   0  0  0  0  0  0  0  0  0  0  0  0
    0.0000    0.0000    0.0000 C   0  0  0  0  0  0  0  0  0  0  0  0
    0.0000    0.0000    0.0000 C   0  0  0  0  0  0  0  0  0  0  0  0
    0.0000    0.0000    0.0000 C   0  0  0  0  0  0  0  0  0  0  0  0
    0.0000    0.0000    0.0000 C   0  0  0  0  0  0  0  0  0  0  0  0
    0.0000    0.0000    0.0000 N   0  0  0  0  0  0  0  0  0  0  0  0
    0.0000    0.0000    0.0000 N   0  0  0  0  0  0  0  0  0  0  0  0
    0.0000    0.0000    0.0000 C   0  0  0  0  0  0  0  0  0  0  0  0
    0.0000    0.0000    0.0000 C   0  0  0  0  0  0  0  0  0  0  0  0
    0.0000    0.0000    0.0000 C   0  0  0  0  0  0  0  0  0  0  0  0
    0.0000    0.0000    0.0000 C   0  0  0  0  0  0  0  0  0  0  0  0
    0.0000    0.0000    0.0000 C   0  0  0  0  0  0  0  0  0  0  0  0
    0.0000    0.0000    0.0000 C   0  0  0  0  0  0  0  0  0  0  0  0
  1  2  1  0
  2  3  1  0
  2  4  1  0
  4  5  2  0
  5  6  1  0
  6  7  1  0
  7  8  1  0
  8  9  1  0
  9 10  1  0
 10 11  1  0
 11 12  1  0
 12 13  1  0
 11 14  1  0
 14 15  1  0
 15 16  2  0
 15 17  1  0
 17 18  2  0
 18 19  1  0
 19 20  2  0
 20 21  1  0
 21 22  2  0
 21 23  1  0
 23 24  3  0
  6 25  2  0
 25 26  1  0
 26 27  2  0
 27 28  1  0
 28 29  2  0
 29 30  1  0
 30 31  2  0
 31  4  1  0
 13  8  1  0
 22 17  1  0
 31 26  1  0
M  END
>  <pIC50>  (48) 
6.82

>  <ChEMBL_ID>  (48) 
CHEMBL181099

>  <document_journal>  (48) 
Bioorg. Med. Chem. Lett.

>  <bao_endpoint>  (48) 
BAO_0000190

>  <potential_duplicate>  (48) 
False

>  <uo_units>  (48) 
UO_0000065

>  <canonical_smiles>  (48) 
CN(C)c1nc(N[C@@H]2CC[C@@H](CC2)NC(=O)c3cccc(c3)C#N)nc4ccccc14

>  <parent_molecule_chembl_id>  (48) 
CHEMBL181099

>  <assay_type>  (48) 
B

>  <src_id>  (48) 
1

>  <ligand_efficiency>  (48) 
{u'le': u'0.3', u'bei': u'16.46', u'sei': u'7.26', u'lle': u'2.5'}

>  <standard_flag>  (48) 
True

>  <molecule_chembl_id>  (48) 
CHEMBL181099

>  <target_organism>  (48) 
Homo sapiens

>  <standard_units>  (48) 
nM

>  <record_id>  (48) 
368223

>  <document_chembl_id>  (48) 
CHEMBL1142793

>  <bao_format>  (48) 
BAO_0000219

>  <data_validity_description>  (48) 
None

>  <activity_id>  (48) 
1430514

>  <standard_type>  (48) 
IC50

>  <target_chembl_id>  (48) 
CHEMBL1867

>  <data_validity_comment>  (48) 
None

>  <published_value>  (48) 
150

>  <document_year>  (48) 
2005

>  <target_pref_name>  (48) 
Alpha-2a adrenergic receptor

>  <assay_chembl_id>  (48) 
CHEMBL831139

>  <standard_relation>  (48) 
=

>  <assay_description>  (48) 
Inhibitory activity against alpha-2A adrenergic receptor by using [3H]MK-912 as radioligand expressed in COS-1 cells

>  <published_relation>  (48) 
=

>  <standard_value>  (48) 
150

>  <qudt_units>  (48) 
http://www.openphacts.org/units/Nanomolar

>  <target_tax_id>  (48) 
9606

>  <bao_label>  (48) 
cell-based format

>  <published_units>  (48) 
nM

>  <pchembl_value>  (48) 
6.82

>  <published_type>  (48) 
IC50

>  <activity_comment>  (48) 
None

$$$$

     RDKit          

 36 39  0  0  0  0  0  0  0  0999 V2000
    0.0000    0.0000    0.0000 C   0  0  0  0  0  0  0  0  0  0  0  0
    0.0000    0.0000    0.0000 N   0  0  0  0  0  0  0  0  0  0  0  0
    0.0000    0.0000    0.0000 C   0  0  0  0  0  0  0  0  0  0  0  0
    0.0000    0.0000    0.0000 C   0  0  0  0  0  0  0  0  0  0  0  0
    0.0000    0.0000    0.0000 N   0  0  0  0  0  0  0  0  0  0  0  0
    0.0000    0.0000    0.0000 C   0  0  0  0  0  0  0  0  0  0  0  0
    0.0000    0.0000    0.0000 N   0  0  0  0  0  0  0  0  0  0  0  0
    0.0000    0.0000    0.0000 C   0  0  0  0  0  0  0  0  0  0  0  0
    0.0000    0.0000    0.0000 C   0  0  0  0  0  0  0  0  0  0  0  0
    0.0000    0.0000    0.0000 C   0  0  0  0  0  0  0  0  0  0  0  0
    0.0000    0.0000    0.0000 C   0  0  0  0  0  0  0  0  0  0  0  0
    0.0000    0.0000    0.0000 C   0  0  0  0  0  0  0  0  0  0  0  0
    0.0000    0.0000    0.0000 N   0  0  0  0  0  0  0  0  0  0  0  0
    0.0000    0.0000    0.0000 C   0  0  0  0  0  0  0  0  0  0  0  0
    0.0000    0.0000    0.0000 O   0  0  0  0  0  0  0  0  0  0  0  0
    0.0000    0.0000    0.0000 C   0  0  0  0  0  0  0  0  0  0  0  0
    0.0000    0.0000    0.0000 C   0  0  0  0  0  0  0  0  0  0  0  0
    0.0000    0.0000    0.0000 C   0  0  0  0  0  0  0  0  0  0  0  0
    0.0000    0.0000    0.0000 C   0  0  0  0  0  0  0  0  0  0  0  0
    0.0000    0.0000    0.0000 Br  0  0  0  0  0  0  0  0  0  0  0  0
    0.0000    0.0000    0.0000 C   0  0  0  0  0  0  0  0  0  0  0  0
    0.0000    0.0000    0.0000 C   0  0  0  0  0  0  0  0  0  0  0  0
    0.0000    0.0000    0.0000 O   0  0  0  0  0  0  0  0  0  0  0  0
    0.0000    0.0000    0.0000 C   0  0  0  0  0  0  0  0  0  0  0  0
    0.0000    0.0000    0.0000 F   0  0  0  0  0  0  0  0  0  0  0  0
    0.0000    0.0000    0.0000 F   0  0  0  0  0  0  0  0  0  0  0  0
    0.0000    0.0000    0.0000 F   0  0  0  0  0  0  0  0  0  0  0  0
    0.0000    0.0000    0.0000 C   0  0  0  0  0  0  0  0  0  0  0  0
    0.0000    0.0000    0.0000 C   0  0  0  0  0  0  0  0  0  0  0  0
    0.0000    0.0000    0.0000 N   0  0  0  0  0  0  0  0  0  0  0  0
    0.0000    0.0000    0.0000 C   0  0  0  0  0  0  0  0  0  0  0  0
    0.0000    0.0000    0.0000 C   0  0  0  0  0  0  0  0  0  0  0  0
    0.0000    0.0000    0.0000 C   0  0  0  0  0  0  0  0  0  0  0  0
    0.0000    0.0000    0.0000 C   0  0  0  0  0  0  0  0  0  0  0  0
    0.0000    0.0000    0.0000 C   0  0  0  0  0  0  0  0  0  0  0  0
    0.0000    0.0000    0.0000 C   0  0  0  0  0  0  0  0  0  0  0  0
  1  2  1  0
  2  3  1  0
  2  4  1  0
  4  5  2  0
  5  6  1  0
  6  7  1  0
  7  8  1  0
  8  9  1  0
  9 10  1  0
 10 11  1  0
 11 12  1  0
 12 13  1  0
 13 14  1  0
 14 15  2  0
 14 16  1  0
 16 17  2  0
 17 18  1  0
 18 19  2  0
 19 20  1  0
 19 21  1  0
 21 22  2  0
 22 23  1  0
 23 24  1  0
 24 25  1  0
 24 26  1  0
 24 27  1  0
 11 28  1  0
 28 29  1  0
  6 30  2  0
 30 31  1  0
 31 32  2  0
 32 33  1  0
 33 34  2  0
 34 35  1  0
 35 36  2  0
 36  4  1  0
 29  8  1  0
 22 16  1  0
 36 31  1  0
M  END
>  <pIC50>  (49) 
6.24

>  <ChEMBL_ID>  (49) 
CHEMBL181393

>  <document_journal>  (49) 
Bioorg. Med. Chem. Lett.

>  <bao_endpoint>  (49) 
BAO_0000190

>  <potential_duplicate>  (49) 
False

>  <uo_units>  (49) 
UO_0000065

>  <canonical_smiles>  (49) 
CN(C)c1nc(NC2CCC(CNC(=O)c3ccc(Br)cc3OC(F)(F)F)CC2)nc4ccccc14

>  <parent_molecule_chembl_id>  (49) 
CHEMBL181393

>  <assay_type>  (49) 
B

>  <src_id>  (49) 
1

>  <ligand_efficiency>  (49) 
{u'le': u'0.24', u'bei': u'11.02', u'sei': u'7.87', u'lle': u'-1.4'}

>  <standard_flag>  (49) 
True

>  <molecule_chembl_id>  (49) 
CHEMBL181393

>  <target_organism>  (49) 
Homo sapiens

>  <standard_units>  (49) 
nM

>  <record_id>  (49) 
367723

>  <document_chembl_id>  (49) 
CHEMBL1142793

>  <bao_format>  (49) 
BAO_0000219

>  <data_validity_description>  (49) 
None

>  <activity_id>  (49) 
1430731

>  <standard_type>  (49) 
IC50

>  <target_chembl_id>  (49) 
CHEMBL1867

>  <data_validity_comment>  (49) 
None

>  <published_value>  (49) 
570

>  <document_year>  (49) 
2005

>  <target_pref_name>  (49) 
Alpha-2a adrenergic receptor

>  <assay_chembl_id>  (49) 
CHEMBL831139

>  <standard_relation>  (49) 
=

>  <assay_description>  (49) 
Inhibitory activity against alpha-2A adrenergic receptor by using [3H]MK-912 as radioligand expressed in COS-1 cells

>  <published_relation>  (49) 
=

>  <standard_value>  (49) 
570

>  <qudt_units>  (49) 
http://www.openphacts.org/units/Nanomolar

>  <target_tax_id>  (49) 
9606

>  <bao_label>  (49) 
cell-based format

>  <published_units>  (49) 
nM

>  <pchembl_value>  (49) 
6.24

>  <published_type>  (49) 
IC50

>  <activity_comment>  (49) 
None

$$$$

     RDKit          

 38 41  0  0  0  0  0  0  0  0999 V2000
    0.0000    0.0000    0.0000 C   0  0  0  0  0  0  0  0  0  0  0  0
    0.0000    0.0000    0.0000 N   0  0  0  0  0  0  0  0  0  0  0  0
    0.0000    0.0000    0.0000 C   0  0  0  0  0  0  0  0  0  0  0  0
    0.0000    0.0000    0.0000 C   0  0  0  0  0  0  0  0  0  0  0  0
    0.0000    0.0000    0.0000 N   0  0  0  0  0  0  0  0  0  0  0  0
    0.0000    0.0000    0.0000 C   0  0  0  0  0  0  0  0  0  0  0  0
    0.0000    0.0000    0.0000 N   0  0  0  0  0  0  0  0  0  0  0  0
    0.0000    0.0000    0.0000 C   0  0  0  0  0  0  0  0  0  0  0  0
    0.0000    0.0000    0.0000 C   0  0  0  0  0  0  0  0  0  0  0  0
    0.0000    0.0000    0.0000 C   0  0  0  0  0  0  0  0  0  0  0  0
    0.0000    0.0000    0.0000 C   0  0  0  0  0  0  0  0  0  0  0  0
    0.0000    0.0000    0.0000 C   0  0  0  0  0  0  0  0  0  0  0  0
    0.0000    0.0000    0.0000 C   0  0  0  0  0  0  0  0  0  0  0  0
    0.0000    0.0000    0.0000 N   0  0  0  0  0  0  0  0  0  0  0  0
    0.0000    0.0000    0.0000 S   0  0  0  0  0  0  0  0  0  0  0  0
    0.0000    0.0000    0.0000 O   0  0  0  0  0  0  0  0  0  0  0  0
    0.0000    0.0000    0.0000 O   0  0  0  0  0  0  0  0  0  0  0  0
    0.0000    0.0000    0.0000 C   0  0  0  0  0  0  0  0  0  0  0  0
    0.0000    0.0000    0.0000 C   0  0  0  0  0  0  0  0  0  0  0  0
    0.0000    0.0000    0.0000 C   0  0  0  0  0  0  0  0  0  0  0  0
    0.0000    0.0000    0.0000 C   0  0  0  0  0  0  0  0  0  0  0  0
    0.0000    0.0000    0.0000 Br  0  0  0  0  0  0  0  0  0  0  0  0
    0.0000    0.0000    0.0000 C   0  0  0  0  0  0  0  0  0  0  0  0
    0.0000    0.0000    0.0000 C   0  0  0  0  0  0  0  0  0  0  0  0
    0.0000    0.0000    0.0000 O   0  0  0  0  0  0  0  0  0  0  0  0
    0.0000    0.0000    0.0000 C   0  0  0  0  0  0  0  0  0  0  0  0
    0.0000    0.0000    0.0000 F   0  0  0  0  0  0  0  0  0  0  0  0
    0.0000    0.0000    0.0000 F   0  0  0  0  0  0  0  0  0  0  0  0
    0.0000    0.0000    0.0000 F   0  0  0  0  0  0  0  0  0  0  0  0
    0.0000    0.0000    0.0000 C   0  0  0  0  0  0  0  0  0  0  0  0
    0.0000    0.0000    0.0000 C   0  0  0  0  0  0  0  0  0  0  0  0
    0.0000    0.0000    0.0000 N   0  0  0  0  0  0  0  0  0  0  0  0
    0.0000    0.0000    0.0000 C   0  0  0  0  0  0  0  0  0  0  0  0
    0.0000    0.0000    0.0000 C   0  0  0  0  0  0  0  0  0  0  0  0
    0.0000    0.0000    0.0000 C   0  0  0  0  0  0  0  0  0  0  0  0
    0.0000    0.0000    0.0000 C   0  0  0  0  0  0  0  0  0  0  0  0
    0.0000    0.0000    0.0000 C   0  0  0  0  0  0  0  0  0  0  0  0
    0.0000    0.0000    0.0000 C   0  0  0  0  0  0  0  0  0  0  0  0
  1  2  1  0
  2  3  1  0
  2  4  1  0
  4  5  2  0
  5  6  1  0
  6  7  1  0
  7  8  1  0
  8  9  1  0
  9 10  1  0
 10 11  1  0
 11 12  1  0
 12 13  1  0
 13 14  1  0
 14 15  1  0
 15 16  2  0
 15 17  2  0
 15 18  1  0
 18 19  2  0
 19 20  1  0
 20 21  2  0
 21 22  1  0
 21 23  1  0
 23 24  2  0
 24 25  1  0
 25 26  1  0
 26 27  1  0
 26 28  1  0
 26 29  1  0
 12 30  1  0
 30 31  1  0
  6 32  2  0
 32 33  1  0
 33 34  2  0
 34 35  1  0
 35 36  2  0
 36 37  1  0
 37 38  2  0
 38  4  1  0
 31  9  1  0
 24 18  1  0
 38 33  1  0
M  END
>  <pIC50>  (50) 
8.11

>  <ChEMBL_ID>  (50) 
CHEMBL537846

>  <document_journal>  (50) 
Bioorg. Med. Chem. Lett.

>  <bao_endpoint>  (50) 
BAO_0000190

>  <potential_duplicate>  (50) 
False

>  <uo_units>  (50) 
UO_0000065

>  <canonical_smiles>  (50) 
Cl.CN(C)c1nc(NC[C@@H]2CC[C@@H](CNS(=O)(=O)c3ccc(Br)cc3OC(F)(F)F)CC2)nc4ccccc14

>  <parent_molecule_chembl_id>  (50) 
CHEMBL1188966

>  <assay_type>  (50) 
B

>  <src_id>  (50) 
1

>  <ligand_efficiency>  (50) 
{u'le': u'0.29', u'bei': u'13.16', u'sei': u'7.74', u'lle': u'0.44'}

>  <standard_flag>  (50) 
True

>  <molecule_chembl_id>  (50) 
CHEMBL537846

>  <target_organism>  (50) 
Homo sapiens

>  <standard_units>  (50) 
nM

>  <record_id>  (50) 
367926

>  <document_chembl_id>  (50) 
CHEMBL1142793

>  <bao_format>  (50) 
BAO_0000219

>  <data_validity_description>  (50) 
None

>  <activity_id>  (50) 
1430795

>  <standard_type>  (50) 
IC50

>  <target_chembl_id>  (50) 
CHEMBL1867

>  <data_validity_comment>  (50) 
None

>  <published_value>  (50) 
7.7

>  <document_year>  (50) 
2005

>  <target_pref_name>  (50) 
Alpha-2a adrenergic receptor

>  <assay_chembl_id>  (50) 
CHEMBL831139

>  <standard_relation>  (50) 
=

>  <assay_description>  (50) 
Inhibitory activity against alpha-2A adrenergic receptor by using [3H]MK-912 as radioligand expressed in COS-1 cells

>  <published_relation>  (50) 
=

>  <standard_value>  (50) 
7.7

>  <qudt_units>  (50) 
http://www.openphacts.org/units/Nanomolar

>  <target_tax_id>  (50) 
9606

>  <bao_label>  (50) 
cell-based format

>  <published_units>  (50) 
nM

>  <pchembl_value>  (50) 
8.11

>  <published_type>  (50) 
IC50

>  <activity_comment>  (50) 
None

$$$$

     RDKit          

 35 38  0  0  0  0  0  0  0  0999 V2000
    0.0000    0.0000    0.0000 C   0  0  0  0  0  0  0  0  0  0  0  0
    0.0000    0.0000    0.0000 N   0  0  0  0  0  0  0  0  0  0  0  0
    0.0000    0.0000    0.0000 C   0  0  0  0  0  0  0  0  0  0  0  0
    0.0000    0.0000    0.0000 C   0  0  0  0  0  0  0  0  0  0  0  0
    0.0000    0.0000    0.0000 N   0  0  0  0  0  0  0  0  0  0  0  0
    0.0000    0.0000    0.0000 C   0  0  0  0  0  0  0  0  0  0  0  0
    0.0000    0.0000    0.0000 N   0  0  0  0  0  0  0  0  0  0  0  0
    0.0000    0.0000    0.0000 C   0  0  0  0  0  0  0  0  0  0  0  0
    0.0000    0.0000    0.0000 C   0  0  0  0  0  0  0  0  0  0  0  0
    0.0000    0.0000    0.0000 C   0  0  0  0  0  0  0  0  0  0  0  0
    0.0000    0.0000    0.0000 C   0  0  0  0  0  0  0  0  0  0  0  0
    0.0000    0.0000    0.0000 C   0  0  0  0  0  0  0  0  0  0  0  0
    0.0000    0.0000    0.0000 N   0  0  0  0  0  0  0  0  0  0  0  0
    0.0000    0.0000    0.0000 C   0  0  0  0  0  0  0  0  0  0  0  0
    0.0000    0.0000    0.0000 C   0  0  0  0  0  0  0  0  0  0  0  0
    0.0000    0.0000    0.0000 C   0  0  0  0  0  0  0  0  0  0  0  0
    0.0000    0.0000    0.0000 C   0  0  0  0  0  0  0  0  0  0  0  0
    0.0000    0.0000    0.0000 C   0  0  0  0  0  0  0  0  0  0  0  0
    0.0000    0.0000    0.0000 Br  0  0  0  0  0  0  0  0  0  0  0  0
    0.0000    0.0000    0.0000 C   0  0  0  0  0  0  0  0  0  0  0  0
    0.0000    0.0000    0.0000 C   0  0  0  0  0  0  0  0  0  0  0  0
    0.0000    0.0000    0.0000 O   0  0  0  0  0  0  0  0  0  0  0  0
    0.0000    0.0000    0.0000 C   0  0  0  0  0  0  0  0  0  0  0  0
    0.0000    0.0000    0.0000 F   0  0  0  0  0  0  0  0  0  0  0  0
    0.0000    0.0000    0.0000 F   0  0  0  0  0  0  0  0  0  0  0  0
    0.0000    0.0000    0.0000 F   0  0  0  0  0  0  0  0  0  0  0  0
    0.0000    0.0000    0.0000 C   0  0  0  0  0  0  0  0  0  0  0  0
    0.0000    0.0000    0.0000 C   0  0  0  0  0  0  0  0  0  0  0  0
    0.0000    0.0000    0.0000 N   0  0  0  0  0  0  0  0  0  0  0  0
    0.0000    0.0000    0.0000 C   0  0  0  0  0  0  0  0  0  0  0  0
    0.0000    0.0000    0.0000 C   0  0  0  0  0  0  0  0  0  0  0  0
    0.0000    0.0000    0.0000 C   0  0  0  0  0  0  0  0  0  0  0  0
    0.0000    0.0000    0.0000 C   0  0  0  0  0  0  0  0  0  0  0  0
    0.0000    0.0000    0.0000 C   0  0  0  0  0  0  0  0  0  0  0  0
    0.0000    0.0000    0.0000 C   0  0  0  0  0  0  0  0  0  0  0  0
  1  2  1  0
  2  3  1  0
  2  4  1  0
  4  5  2  0
  5  6  1  0
  6  7  1  0
  7  8  1  0
  8  9  1  0
  9 10  1  0
 10 11  1  0
 11 12  1  0
 12 13  1  0
 13 14  1  0
 14 15  1  0
 15 16  2  0
 16 17  1  0
 17 18  2  0
 18 19  1  0
 18 20  1  0
 20 21  2  0
 21 22  1  0
 22 23  1  0
 23 24  1  0
 23 25  1  0
 23 26  1  0
 11 27  1  0
 27 28  1  0
  6 29  2  0
 29 30  1  0
 30 31  2  0
 31 32  1  0
 32 33  2  0
 33 34  1  0
 34 35  2  0
 35  4  1  0
 28  8  1  0
 21 15  1  0
 35 30  1  0
M  END
>  <pIC50>  (51) 
6.44

>  <ChEMBL_ID>  (51) 
CHEMBL181466

>  <document_journal>  (51) 
Bioorg. Med. Chem. Lett.

>  <bao_endpoint>  (51) 
BAO_0000190

>  <potential_duplicate>  (51) 
False

>  <uo_units>  (51) 
UO_0000065

>  <canonical_smiles>  (51) 
CN(C)c1nc(NC2CCC(CNCc3ccc(Br)cc3OC(F)(F)F)CC2)nc4ccccc14

>  <parent_molecule_chembl_id>  (51) 
CHEMBL181466

>  <assay_type>  (51) 
B

>  <src_id>  (51) 
1

>  <ligand_efficiency>  (51) 
{u'le': u'0.25', u'bei': u'11.66', u'sei': u'10.34', u'lle': u'-1.53'}

>  <standard_flag>  (51) 
True

>  <molecule_chembl_id>  (51) 
CHEMBL181466

>  <target_organism>  (51) 
Homo sapiens

>  <standard_units>  (51) 
nM

>  <record_id>  (51) 
367654

>  <document_chembl_id>  (51) 
CHEMBL1142793

>  <bao_format>  (51) 
BAO_0000219

>  <data_validity_description>  (51) 
None

>  <activity_id>  (51) 
1430852

>  <standard_type>  (51) 
IC50

>  <target_chembl_id>  (51) 
CHEMBL1867

>  <data_validity_comment>  (51) 
None

>  <published_value>  (51) 
360

>  <document_year>  (51) 
2005

>  <target_pref_name>  (51) 
Alpha-2a adrenergic receptor

>  <assay_chembl_id>  (51) 
CHEMBL831139

>  <standard_relation>  (51) 
=

>  <assay_description>  (51) 
Inhibitory activity against alpha-2A adrenergic receptor by using [3H]MK-912 as radioligand expressed in COS-1 cells

>  <published_relation>  (51) 
=

>  <standard_value>  (51) 
360

>  <qudt_units>  (51) 
http://www.openphacts.org/units/Nanomolar

>  <target_tax_id>  (51) 
9606

>  <bao_label>  (51) 
cell-based format

>  <published_units>  (51) 
nM

>  <pchembl_value>  (51) 
6.44

>  <published_type>  (51) 
IC50

>  <activity_comment>  (51) 
None

$$$$

     RDKit          

 37 40  0  0  0  0  0  0  0  0999 V2000
    0.0000    0.0000    0.0000 C   0  0  0  0  0  0  0  0  0  0  0  0
    0.0000    0.0000    0.0000 N   0  0  0  0  0  0  0  0  0  0  0  0
    0.0000    0.0000    0.0000 C   0  0  0  0  0  0  0  0  0  0  0  0
    0.0000    0.0000    0.0000 C   0  0  0  0  0  0  0  0  0  0  0  0
    0.0000    0.0000    0.0000 N   0  0  0  0  0  0  0  0  0  0  0  0
    0.0000    0.0000    0.0000 C   0  0  0  0  0  0  0  0  0  0  0  0
    0.0000    0.0000    0.0000 N   0  0  0  0  0  0  0  0  0  0  0  0
    0.0000    0.0000    0.0000 C   0  0  0  0  0  0  0  0  0  0  0  0
    0.0000    0.0000    0.0000 C   0  0  0  0  0  0  0  0  0  0  0  0
    0.0000    0.0000    0.0000 C   0  0  0  0  0  0  0  0  0  0  0  0
    0.0000    0.0000    0.0000 C   0  0  0  0  0  0  0  0  0  0  0  0
    0.0000    0.0000    0.0000 C   0  0  0  0  0  0  0  0  0  0  0  0
    0.0000    0.0000    0.0000 N   0  0  0  0  0  0  0  0  0  0  0  0
    0.0000    0.0000    0.0000 S   0  0  0  0  0  0  0  0  0  0  0  0
    0.0000    0.0000    0.0000 O   0  0  0  0  0  0  0  0  0  0  0  0
    0.0000    0.0000    0.0000 O   0  0  0  0  0  0  0  0  0  0  0  0
    0.0000    0.0000    0.0000 C   0  0  0  0  0  0  0  0  0  0  0  0
    0.0000    0.0000    0.0000 C   0  0  0  0  0  0  0  0  0  0  0  0
    0.0000    0.0000    0.0000 C   0  0  0  0  0  0  0  0  0  0  0  0
    0.0000    0.0000    0.0000 C   0  0  0  0  0  0  0  0  0  0  0  0
    0.0000    0.0000    0.0000 Br  0  0  0  0  0  0  0  0  0  0  0  0
    0.0000    0.0000    0.0000 C   0  0  0  0  0  0  0  0  0  0  0  0
    0.0000    0.0000    0.0000 C   0  0  0  0  0  0  0  0  0  0  0  0
    0.0000    0.0000    0.0000 O   0  0  0  0  0  0  0  0  0  0  0  0
    0.0000    0.0000    0.0000 C   0  0  0  0  0  0  0  0  0  0  0  0
    0.0000    0.0000    0.0000 F   0  0  0  0  0  0  0  0  0  0  0  0
    0.0000    0.0000    0.0000 F   0  0  0  0  0  0  0  0  0  0  0  0
    0.0000    0.0000    0.0000 F   0  0  0  0  0  0  0  0  0  0  0  0
    0.0000    0.0000    0.0000 C   0  0  0  0  0  0  0  0  0  0  0  0
    0.0000    0.0000    0.0000 C   0  0  0  0  0  0  0  0  0  0  0  0
    0.0000    0.0000    0.0000 N   0  0  0  0  0  0  0  0  0  0  0  0
    0.0000    0.0000    0.0000 C   0  0  0  0  0  0  0  0  0  0  0  0
    0.0000    0.0000    0.0000 C   0  0  0  0  0  0  0  0  0  0  0  0
    0.0000    0.0000    0.0000 C   0  0  0  0  0  0  0  0  0  0  0  0
    0.0000    0.0000    0.0000 C   0  0  0  0  0  0  0  0  0  0  0  0
    0.0000    0.0000    0.0000 C   0  0  0  0  0  0  0  0  0  0  0  0
    0.0000    0.0000    0.0000 C   0  0  0  0  0  0  0  0  0  0  0  0
  1  2  1  0
  2  3  1  0
  2  4  1  0
  4  5  2  0
  5  6  1  0
  6  7  1  0
  7  8  1  0
  8  9  1  0
  9 10  1  0
 10 11  1  0
 11 12  1  0
 12 13  1  0
 13 14  1  0
 14 15  2  0
 14 16  2  0
 14 17  1  0
 17 18  2  0
 18 19  1  0
 19 20  2  0
 20 21  1  0
 20 22  1  0
 22 23  2  0
 23 24  1  0
 24 25  1  0
 25 26  1  0
 25 27  1  0
 25 28  1  0
 11 29  1  0
 29 30  1  0
  6 31  2  0
 31 32  1  0
 32 33  2  0
 33 34  1  0
 34 35  2  0
 35 36  1  0
 36 37  2  0
 37  4  1  0
 30  8  1  0
 23 17  1  0
 37 32  1  0
M  END
>  <pIC50>  (52) 
6.89

>  <ChEMBL_ID>  (52) 
CHEMBL181217

>  <document_journal>  (52) 
Bioorg. Med. Chem. Lett.

>  <bao_endpoint>  (52) 
BAO_0000190

>  <potential_duplicate>  (52) 
False

>  <uo_units>  (52) 
UO_0000065

>  <canonical_smiles>  (52) 
CN(C)c1nc(N[C@@H]2CC[C@H](CNS(=O)(=O)c3ccc(Br)cc3OC(F)(F)F)CC2)nc4ccccc14

>  <parent_molecule_chembl_id>  (52) 
CHEMBL181217

>  <assay_type>  (52) 
B

>  <src_id>  (52) 
1

>  <ligand_efficiency>  (52) 
{u'le': u'0.25', u'bei': u'11.43', u'sei': u'6.57', u'lle': u'-0.45'}

>  <standard_flag>  (52) 
True

>  <molecule_chembl_id>  (52) 
CHEMBL181217

>  <target_organism>  (52) 
Homo sapiens

>  <standard_units>  (52) 
nM

>  <record_id>  (52) 
367663

>  <document_chembl_id>  (52) 
CHEMBL1142793

>  <bao_format>  (52) 
BAO_0000219

>  <data_validity_description>  (52) 
None

>  <activity_id>  (52) 
1430909

>  <standard_type>  (52) 
IC50

>  <target_chembl_id>  (52) 
CHEMBL1867

>  <data_validity_comment>  (52) 
None

>  <published_value>  (52) 
130

>  <document_year>  (52) 
2005

>  <target_pref_name>  (52) 
Alpha-2a adrenergic receptor

>  <assay_chembl_id>  (52) 
CHEMBL831139

>  <standard_relation>  (52) 
=

>  <assay_description>  (52) 
Inhibitory activity against alpha-2A adrenergic receptor by using [3H]MK-912 as radioligand expressed in COS-1 cells

>  <published_relation>  (52) 
=

>  <standard_value>  (52) 
130

>  <qudt_units>  (52) 
http://www.openphacts.org/units/Nanomolar

>  <target_tax_id>  (52) 
9606

>  <bao_label>  (52) 
cell-based format

>  <published_units>  (52) 
nM

>  <pchembl_value>  (52) 
6.89

>  <published_type>  (52) 
IC50

>  <activity_comment>  (52) 
None

$$$$

     RDKit          

 30 33  0  0  0  0  0  0  0  0999 V2000
    0.0000    0.0000    0.0000 C   0  0  0  0  0  0  0  0  0  0  0  0
    0.0000    0.0000    0.0000 N   0  0  0  0  0  0  0  0  0  0  0  0
    0.0000    0.0000    0.0000 C   0  0  0  0  0  0  0  0  0  0  0  0
    0.0000    0.0000    0.0000 C   0  0  0  0  0  0  0  0  0  0  0  0
    0.0000    0.0000    0.0000 N   0  0  0  0  0  0  0  0  0  0  0  0
    0.0000    0.0000    0.0000 C   0  0  0  0  0  0  0  0  0  0  0  0
    0.0000    0.0000    0.0000 N   0  0  0  0  0  0  0  0  0  0  0  0
    0.0000    0.0000    0.0000 C   0  0  0  0  0  0  0  0  0  0  0  0
    0.0000    0.0000    0.0000 C   0  0  0  0  0  0  0  0  0  0  0  0
    0.0000    0.0000    0.0000 C   0  0  0  0  0  0  0  0  0  0  0  0
    0.0000    0.0000    0.0000 C   0  0  0  0  0  0  0  0  0  0  0  0
    0.0000    0.0000    0.0000 C   0  0  0  0  0  0  0  0  0  0  0  0
    0.0000    0.0000    0.0000 C   0  0  0  0  0  0  0  0  0  0  0  0
    0.0000    0.0000    0.0000 N   0  0  0  0  0  0  0  0  0  0  0  0
    0.0000    0.0000    0.0000 C   0  0  0  0  0  0  0  0  0  0  0  0
    0.0000    0.0000    0.0000 O   0  0  0  0  0  0  0  0  0  0  0  0
    0.0000    0.0000    0.0000 C   0  0  0  0  0  0  0  0  0  0  0  0
    0.0000    0.0000    0.0000 C   0  0  0  0  0  0  0  0  0  0  0  0
    0.0000    0.0000    0.0000 C   0  0  0  0  0  0  0  0  0  0  0  0
    0.0000    0.0000    0.0000 C   0  0  0  0  0  0  0  0  0  0  0  0
    0.0000    0.0000    0.0000 F   0  0  0  0  0  0  0  0  0  0  0  0
    0.0000    0.0000    0.0000 C   0  0  0  0  0  0  0  0  0  0  0  0
    0.0000    0.0000    0.0000 C   0  0  0  0  0  0  0  0  0  0  0  0
    0.0000    0.0000    0.0000 N   0  0  0  0  0  0  0  0  0  0  0  0
    0.0000    0.0000    0.0000 C   0  0  0  0  0  0  0  0  0  0  0  0
    0.0000    0.0000    0.0000 C   0  0  0  0  0  0  0  0  0  0  0  0
    0.0000    0.0000    0.0000 C   0  0  0  0  0  0  0  0  0  0  0  0
    0.0000    0.0000    0.0000 C   0  0  0  0  0  0  0  0  0  0  0  0
    0.0000    0.0000    0.0000 C   0  0  0  0  0  0  0  0  0  0  0  0
    0.0000    0.0000    0.0000 C   0  0  0  0  0  0  0  0  0  0  0  0
  1  2  1  0
  2  3  1  0
  2  4  1  0
  4  5  2  0
  5  6  1  0
  6  7  1  0
  7  8  1  0
  8  9  1  0
  9 10  1  0
 10 11  1  0
 11 12  1  0
 12 13  1  0
 11 14  1  0
 14 15  1  0
 15 16  2  0
 15 17  1  0
 17 18  2  0
 18 19  1  0
 19 20  2  0
 20 21  1  0
 20 22  1  0
 22 23  2  0
  6 24  2  0
 24 25  1  0
 25 26  2  0
 26 27  1  0
 27 28  2  0
 28 29  1  0
 29 30  2  0
 30  4  1  0
 13  8  1  0
 23 17  1  0
 30 25  1  0
M  END
>  <pIC50>  (53) 
6.82

>  <ChEMBL_ID>  (53) 
CHEMBL361442

>  <document_journal>  (53) 
Bioorg. Med. Chem. Lett.

>  <bao_endpoint>  (53) 
BAO_0000190

>  <potential_duplicate>  (53) 
False

>  <uo_units>  (53) 
UO_0000065

>  <canonical_smiles>  (53) 
CN(C)c1nc(N[C@@H]2CC[C@@H](CC2)NC(=O)c3ccc(F)cc3)nc4ccccc14

>  <parent_molecule_chembl_id>  (53) 
CHEMBL361442

>  <assay_type>  (53) 
B

>  <src_id>  (53) 
1

>  <ligand_efficiency>  (53) 
{u'le': u'0.31', u'bei': u'16.75', u'sei': u'9.73', u'lle': u'2.18'}

>  <standard_flag>  (53) 
True

>  <molecule_chembl_id>  (53) 
CHEMBL361442

>  <target_organism>  (53) 
Homo sapiens

>  <standard_units>  (53) 
nM

>  <record_id>  (53) 
368167

>  <document_chembl_id>  (53) 
CHEMBL1142793

>  <bao_format>  (53) 
BAO_0000219

>  <data_validity_description>  (53) 
None

>  <activity_id>  (53) 
1431009

>  <standard_type>  (53) 
IC50

>  <target_chembl_id>  (53) 
CHEMBL1867

>  <data_validity_comment>  (53) 
None

>  <published_value>  (53) 
150

>  <document_year>  (53) 
2005

>  <target_pref_name>  (53) 
Alpha-2a adrenergic receptor

>  <assay_chembl_id>  (53) 
CHEMBL831139

>  <standard_relation>  (53) 
=

>  <assay_description>  (53) 
Inhibitory activity against alpha-2A adrenergic receptor by using [3H]MK-912 as radioligand expressed in COS-1 cells

>  <published_relation>  (53) 
=

>  <standard_value>  (53) 
150

>  <qudt_units>  (53) 
http://www.openphacts.org/units/Nanomolar

>  <target_tax_id>  (53) 
9606

>  <bao_label>  (53) 
cell-based format

>  <published_units>  (53) 
nM

>  <pchembl_value>  (53) 
6.82

>  <published_type>  (53) 
IC50

>  <activity_comment>  (53) 
None

$$$$

     RDKit          

 30 33  0  0  0  0  0  0  0  0999 V2000
    0.0000    0.0000    0.0000 C   0  0  0  0  0  0  0  0  0  0  0  0
    0.0000    0.0000    0.0000 N   0  0  0  0  0  0  0  0  0  0  0  0
    0.0000    0.0000    0.0000 C   0  0  0  0  0  0  0  0  0  0  0  0
    0.0000    0.0000    0.0000 C   0  0  0  0  0  0  0  0  0  0  0  0
    0.0000    0.0000    0.0000 N   0  0  0  0  0  0  0  0  0  0  0  0
    0.0000    0.0000    0.0000 C   0  0  0  0  0  0  0  0  0  0  0  0
    0.0000    0.0000    0.0000 N   0  0  0  0  0  0  0  0  0  0  0  0
    0.0000    0.0000    0.0000 C   0  0  0  0  0  0  0  0  0  0  0  0
    0.0000    0.0000    0.0000 C   0  0  0  0  0  0  0  0  0  0  0  0
    0.0000    0.0000    0.0000 C   0  0  0  0  0  0  0  0  0  0  0  0
    0.0000    0.0000    0.0000 C   0  0  0  0  0  0  0  0  0  0  0  0
    0.0000    0.0000    0.0000 C   0  0  0  0  0  0  0  0  0  0  0  0
    0.0000    0.0000    0.0000 C   0  0  0  0  0  0  0  0  0  0  0  0
    0.0000    0.0000    0.0000 N   0  0  0  0  0  0  0  0  0  0  0  0
    0.0000    0.0000    0.0000 C   0  0  0  0  0  0  0  0  0  0  0  0
    0.0000    0.0000    0.0000 O   0  0  0  0  0  0  0  0  0  0  0  0
    0.0000    0.0000    0.0000 C   0  0  0  0  0  0  0  0  0  0  0  0
    0.0000    0.0000    0.0000 C   0  0  0  0  0  0  0  0  0  0  0  0
    0.0000    0.0000    0.0000 C   0  0  0  0  0  0  0  0  0  0  0  0
    0.0000    0.0000    0.0000 C   0  0  0  0  0  0  0  0  0  0  0  0
    0.0000    0.0000    0.0000 C   0  0  0  0  0  0  0  0  0  0  0  0
    0.0000    0.0000    0.0000 Cl  0  0  0  0  0  0  0  0  0  0  0  0
    0.0000    0.0000    0.0000 C   0  0  0  0  0  0  0  0  0  0  0  0
    0.0000    0.0000    0.0000 N   0  0  0  0  0  0  0  0  0  0  0  0
    0.0000    0.0000    0.0000 C   0  0  0  0  0  0  0  0  0  0  0  0
    0.0000    0.0000    0.0000 C   0  0  0  0  0  0  0  0  0  0  0  0
    0.0000    0.0000    0.0000 C   0  0  0  0  0  0  0  0  0  0  0  0
    0.0000    0.0000    0.0000 C   0  0  0  0  0  0  0  0  0  0  0  0
    0.0000    0.0000    0.0000 C   0  0  0  0  0  0  0  0  0  0  0  0
    0.0000    0.0000    0.0000 C   0  0  0  0  0  0  0  0  0  0  0  0
  1  2  1  0
  2  3  1  0
  2  4  1  0
  4  5  2  0
  5  6  1  0
  6  7  1  0
  7  8  1  0
  8  9  1  0
  9 10  1  0
 10 11  1  0
 11 12  1  0
 12 13  1  0
 11 14  1  0
 14 15  1  0
 15 16  2  0
 15 17  1  0
 17 18  2  0
 18 19  1  0
 19 20  2  0
 20 21  1  0
 21 22  1  0
 21 23  2  0
  6 24  2  0
 24 25  1  0
 25 26  2  0
 26 27  1  0
 27 28  2  0
 28 29  1  0
 29 30  2  0
 30  4  1  0
 13  8  1  0
 23 17  1  0
 30 25  1  0
M  END
>  <pIC50>  (54) 
7.12

>  <ChEMBL_ID>  (54) 
CHEMBL179878

>  <document_journal>  (54) 
Bioorg. Med. Chem. Lett.

>  <bao_endpoint>  (54) 
BAO_0000190

>  <potential_duplicate>  (54) 
False

>  <uo_units>  (54) 
UO_0000065

>  <canonical_smiles>  (54) 
CN(C)c1nc(N[C@@H]2CC[C@@H](CC2)NC(=O)c3cccc(Cl)c3)nc4ccccc14

>  <parent_molecule_chembl_id>  (54) 
CHEMBL179878

>  <assay_type>  (54) 
B

>  <src_id>  (54) 
1

>  <ligand_efficiency>  (54) 
{u'le': u'0.32', u'bei': u'16.79', u'sei': u'10.15', u'lle': u'2.02'}

>  <standard_flag>  (54) 
True

>  <molecule_chembl_id>  (54) 
CHEMBL179878

>  <target_organism>  (54) 
Homo sapiens

>  <standard_units>  (54) 
nM

>  <record_id>  (54) 
368204

>  <document_chembl_id>  (54) 
CHEMBL1142793

>  <bao_format>  (54) 
BAO_0000219

>  <data_validity_description>  (54) 
None

>  <activity_id>  (54) 
1431023

>  <standard_type>  (54) 
IC50

>  <target_chembl_id>  (54) 
CHEMBL1867

>  <data_validity_comment>  (54) 
None

>  <published_value>  (54) 
76

>  <document_year>  (54) 
2005

>  <target_pref_name>  (54) 
Alpha-2a adrenergic receptor

>  <assay_chembl_id>  (54) 
CHEMBL831139

>  <standard_relation>  (54) 
=

>  <assay_description>  (54) 
Inhibitory activity against alpha-2A adrenergic receptor by using [3H]MK-912 as radioligand expressed in COS-1 cells

>  <published_relation>  (54) 
=

>  <standard_value>  (54) 
76

>  <qudt_units>  (54) 
http://www.openphacts.org/units/Nanomolar

>  <target_tax_id>  (54) 
9606

>  <bao_label>  (54) 
cell-based format

>  <published_units>  (54) 
nM

>  <pchembl_value>  (54) 
7.12

>  <published_type>  (54) 
IC50

>  <activity_comment>  (54) 
None

$$$$

     RDKit          

 32 35  0  0  0  0  0  0  0  0999 V2000
    0.0000    0.0000    0.0000 C   0  0  0  0  0  0  0  0  0  0  0  0
    0.0000    0.0000    0.0000 N   0  0  0  0  0  0  0  0  0  0  0  0
    0.0000    0.0000    0.0000 C   0  0  0  0  0  0  0  0  0  0  0  0
    0.0000    0.0000    0.0000 C   0  0  0  0  0  0  0  0  0  0  0  0
    0.0000    0.0000    0.0000 N   0  0  0  0  0  0  0  0  0  0  0  0
    0.0000    0.0000    0.0000 C   0  0  0  0  0  0  0  0  0  0  0  0
    0.0000    0.0000    0.0000 N   0  0  0  0  0  0  0  0  0  0  0  0
    0.0000    0.0000    0.0000 C   0  0  0  0  0  0  0  0  0  0  0  0
    0.0000    0.0000    0.0000 C   0  0  0  0  0  0  0  0  0  0  0  0
    0.0000    0.0000    0.0000 C   0  0  0  0  0  0  0  0  0  0  0  0
    0.0000    0.0000    0.0000 C   0  0  0  0  0  0  0  0  0  0  0  0
    0.0000    0.0000    0.0000 C   0  0  0  0  0  0  0  0  0  0  0  0
    0.0000    0.0000    0.0000 C   0  0  0  0  0  0  0  0  0  0  0  0
    0.0000    0.0000    0.0000 N   0  0  0  0  0  0  0  0  0  0  0  0
    0.0000    0.0000    0.0000 C   0  0  0  0  0  0  0  0  0  0  0  0
    0.0000    0.0000    0.0000 O   0  0  0  0  0  0  0  0  0  0  0  0
    0.0000    0.0000    0.0000 C   0  0  0  0  0  0  0  0  0  0  0  0
    0.0000    0.0000    0.0000 C   0  0  0  0  0  0  0  0  0  0  0  0
    0.0000    0.0000    0.0000 C   0  0  0  0  0  0  0  0  0  0  0  0
    0.0000    0.0000    0.0000 C   0  0  0  0  0  0  0  0  0  0  0  0
    0.0000    0.0000    0.0000 C   0  0  0  0  0  0  0  0  0  0  0  0
    0.0000    0.0000    0.0000 C   0  0  0  0  0  0  0  0  0  0  0  0
    0.0000    0.0000    0.0000 N   0  0  0  0  0  0  0  0  0  0  0  0
    0.0000    0.0000    0.0000 O   0  0  0  0  0  0  0  0  0  0  0  0
    0.0000    0.0000    0.0000 O   0  0  0  0  0  0  0  0  0  0  0  0
    0.0000    0.0000    0.0000 N   0  0  0  0  0  0  0  0  0  0  0  0
    0.0000    0.0000    0.0000 C   0  0  0  0  0  0  0  0  0  0  0  0
    0.0000    0.0000    0.0000 C   0  0  0  0  0  0  0  0  0  0  0  0
    0.0000    0.0000    0.0000 C   0  0  0  0  0  0  0  0  0  0  0  0
    0.0000    0.0000    0.0000 C   0  0  0  0  0  0  0  0  0  0  0  0
    0.0000    0.0000    0.0000 C   0  0  0  0  0  0  0  0  0  0  0  0
    0.0000    0.0000    0.0000 C   0  0  0  0  0  0  0  0  0  0  0  0
  1  2  1  0
  2  3  1  0
  2  4  1  0
  4  5  2  0
  5  6  1  0
  6  7  1  0
  7  8  1  0
  8  9  1  0
  9 10  1  0
 10 11  1  0
 11 12  1  0
 12 13  1  0
 11 14  1  0
 14 15  1  0
 15 16  2  0
 15 17  1  0
 17 18  2  0
 18 19  1  0
 19 20  2  0
 20 21  1  0
 21 22  2  0
 21 23  1  0
 23 24  2  0
 23 25  1  0
  6 26  2  0
 26 27  1  0
 27 28  2  0
 28 29  1  0
 29 30  2  0
 30 31  1  0
 31 32  2  0
 32  4  1  0
 13  8  1  0
 22 17  1  0
 32 27  1  0
M  CHG  2  23   1  25  -1
M  END
>  <pIC50>  (55) 
7.01

>  <ChEMBL_ID>  (55) 
CHEMBL181383

>  <document_journal>  (55) 
Bioorg. Med. Chem. Lett.

>  <bao_endpoint>  (55) 
BAO_0000190

>  <potential_duplicate>  (55) 
False

>  <uo_units>  (55) 
UO_0000065

>  <canonical_smiles>  (55) 
CN(C)c1nc(N[C@@H]2CC[C@@H](CC2)NC(=O)c3cccc(c3)[N+](=O)[O-])nc4ccccc14

>  <parent_molecule_chembl_id>  (55) 
CHEMBL181383

>  <assay_type>  (55) 
B

>  <src_id>  (55) 
1

>  <ligand_efficiency>  (55) 
{u'le': u'0.3', u'bei': u'16.14', u'sei': u'6.05', u'lle': u'2.68'}

>  <standard_flag>  (55) 
True

>  <molecule_chembl_id>  (55) 
CHEMBL181383

>  <target_organism>  (55) 
Homo sapiens

>  <standard_units>  (55) 
nM

>  <record_id>  (55) 
368273

>  <document_chembl_id>  (55) 
CHEMBL1142793

>  <bao_format>  (55) 
BAO_0000219

>  <data_validity_description>  (55) 
None

>  <activity_id>  (55) 
1431062

>  <standard_type>  (55) 
IC50

>  <target_chembl_id>  (55) 
CHEMBL1867

>  <data_validity_comment>  (55) 
None

>  <published_value>  (55) 
97

>  <document_year>  (55) 
2005

>  <target_pref_name>  (55) 
Alpha-2a adrenergic receptor

>  <assay_chembl_id>  (55) 
CHEMBL831139

>  <standard_relation>  (55) 
=

>  <assay_description>  (55) 
Inhibitory activity against alpha-2A adrenergic receptor by using [3H]MK-912 as radioligand expressed in COS-1 cells

>  <published_relation>  (55) 
=

>  <standard_value>  (55) 
97

>  <qudt_units>  (55) 
http://www.openphacts.org/units/Nanomolar

>  <target_tax_id>  (55) 
9606

>  <bao_label>  (55) 
cell-based format

>  <published_units>  (55) 
nM

>  <pchembl_value>  (55) 
7.01

>  <published_type>  (55) 
IC50

>  <activity_comment>  (55) 
None

$$$$

     RDKit          

 35 38  0  0  0  0  0  0  0  0999 V2000
    0.0000    0.0000    0.0000 C   0  0  0  0  0  0  0  0  0  0  0  0
    0.0000    0.0000    0.0000 N   0  0  0  0  0  0  0  0  0  0  0  0
    0.0000    0.0000    0.0000 C   0  0  0  0  0  0  0  0  0  0  0  0
    0.0000    0.0000    0.0000 C   0  0  0  0  0  0  0  0  0  0  0  0
    0.0000    0.0000    0.0000 N   0  0  0  0  0  0  0  0  0  0  0  0
    0.0000    0.0000    0.0000 C   0  0  0  0  0  0  0  0  0  0  0  0
    0.0000    0.0000    0.0000 N   0  0  0  0  0  0  0  0  0  0  0  0
    0.0000    0.0000    0.0000 C   0  0  0  0  0  0  0  0  0  0  0  0
    0.0000    0.0000    0.0000 C   0  0  0  0  0  0  0  0  0  0  0  0
    0.0000    0.0000    0.0000 C   0  0  0  0  0  0  0  0  0  0  0  0
    0.0000    0.0000    0.0000 N   0  0  0  0  0  0  0  0  0  0  0  0
    0.0000    0.0000    0.0000 C   0  0  0  0  0  0  0  0  0  0  0  0
    0.0000    0.0000    0.0000 C   0  0  0  0  0  0  0  0  0  0  0  0
    0.0000    0.0000    0.0000 S   0  0  0  0  0  0  0  0  0  0  0  0
    0.0000    0.0000    0.0000 O   0  0  0  0  0  0  0  0  0  0  0  0
    0.0000    0.0000    0.0000 O   0  0  0  0  0  0  0  0  0  0  0  0
    0.0000    0.0000    0.0000 C   0  0  0  0  0  0  0  0  0  0  0  0
    0.0000    0.0000    0.0000 C   0  0  0  0  0  0  0  0  0  0  0  0
    0.0000    0.0000    0.0000 C   0  0  0  0  0  0  0  0  0  0  0  0
    0.0000    0.0000    0.0000 C   0  0  0  0  0  0  0  0  0  0  0  0
    0.0000    0.0000    0.0000 Br  0  0  0  0  0  0  0  0  0  0  0  0
    0.0000    0.0000    0.0000 C   0  0  0  0  0  0  0  0  0  0  0  0
    0.0000    0.0000    0.0000 C   0  0  0  0  0  0  0  0  0  0  0  0
    0.0000    0.0000    0.0000 O   0  0  0  0  0  0  0  0  0  0  0  0
    0.0000    0.0000    0.0000 C   0  0  0  0  0  0  0  0  0  0  0  0
    0.0000    0.0000    0.0000 F   0  0  0  0  0  0  0  0  0  0  0  0
    0.0000    0.0000    0.0000 F   0  0  0  0  0  0  0  0  0  0  0  0
    0.0000    0.0000    0.0000 F   0  0  0  0  0  0  0  0  0  0  0  0
    0.0000    0.0000    0.0000 N   0  0  0  0  0  0  0  0  0  0  0  0
    0.0000    0.0000    0.0000 C   0  0  0  0  0  0  0  0  0  0  0  0
    0.0000    0.0000    0.0000 C   0  0  0  0  0  0  0  0  0  0  0  0
    0.0000    0.0000    0.0000 C   0  0  0  0  0  0  0  0  0  0  0  0
    0.0000    0.0000    0.0000 C   0  0  0  0  0  0  0  0  0  0  0  0
    0.0000    0.0000    0.0000 C   0  0  0  0  0  0  0  0  0  0  0  0
    0.0000    0.0000    0.0000 C   0  0  0  0  0  0  0  0  0  0  0  0
  1  2  1  0
  2  3  1  0
  2  4  1  0
  4  5  2  0
  5  6  1  0
  6  7  1  0
  7  8  1  0
  8  9  1  0
  9 10  1  0
 10 11  1  0
 11 12  1  0
 12 13  1  0
 11 14  1  0
 14 15  2  0
 14 16  2  0
 14 17  1  0
 17 18  2  0
 18 19  1  0
 19 20  2  0
 20 21  1  0
 20 22  1  0
 22 23  2  0
 23 24  1  0
 24 25  1  0
 25 26  1  0
 25 27  1  0
 25 28  1  0
  6 29  2  0
 29 30  1  0
 30 31  2  0
 31 32  1  0
 32 33  2  0
 33 34  1  0
 34 35  2  0
 35  4  1  0
 13  8  1  0
 23 17  1  0
 35 30  1  0
M  END
>  <pIC50>  (56) 
6.77

>  <ChEMBL_ID>  (56) 
CHEMBL360671

>  <document_journal>  (56) 
Bioorg. Med. Chem. Lett.

>  <bao_endpoint>  (56) 
BAO_0000190

>  <potential_duplicate>  (56) 
True

>  <uo_units>  (56) 
UO_0000065

>  <canonical_smiles>  (56) 
CN(C)c1nc(NC2CCN(CC2)S(=O)(=O)c3ccc(Br)cc3OC(F)(F)F)nc4ccccc14

>  <parent_molecule_chembl_id>  (56) 
CHEMBL360671

>  <assay_type>  (56) 
B

>  <src_id>  (56) 
1

>  <ligand_efficiency>  (56) 
{u'le': u'0.26', u'bei': u'11.79', u'sei': u'7.05', u'lle': u'0.74'}

>  <standard_flag>  (56) 
True

>  <molecule_chembl_id>  (56) 
CHEMBL360671

>  <target_organism>  (56) 
Homo sapiens

>  <standard_units>  (56) 
nM

>  <record_id>  (56) 
367733

>  <document_chembl_id>  (56) 
CHEMBL1142793

>  <bao_format>  (56) 
BAO_0000219

>  <data_validity_description>  (56) 
None

>  <activity_id>  (56) 
1431991

>  <standard_type>  (56) 
IC50

>  <target_chembl_id>  (56) 
CHEMBL1867

>  <data_validity_comment>  (56) 
None

>  <published_value>  (56) 
170

>  <document_year>  (56) 
2005

>  <target_pref_name>  (56) 
Alpha-2a adrenergic receptor

>  <assay_chembl_id>  (56) 
CHEMBL831139

>  <standard_relation>  (56) 
=

>  <assay_description>  (56) 
Inhibitory activity against alpha-2A adrenergic receptor by using [3H]MK-912 as radioligand expressed in COS-1 cells

>  <published_relation>  (56) 
=

>  <standard_value>  (56) 
170

>  <qudt_units>  (56) 
http://www.openphacts.org/units/Nanomolar

>  <target_tax_id>  (56) 
9606

>  <bao_label>  (56) 
cell-based format

>  <published_units>  (56) 
nM

>  <pchembl_value>  (56) 
6.77

>  <published_type>  (56) 
IC50

>  <activity_comment>  (56) 
None

$$$$

     RDKit          

 31 34  0  0  0  0  0  0  0  0999 V2000
    0.0000    0.0000    0.0000 C   0  0  0  0  0  0  0  0  0  0  0  0
    0.0000    0.0000    0.0000 N   0  0  0  0  0  0  0  0  0  0  0  0
    0.0000    0.0000    0.0000 C   0  0  0  0  0  0  0  0  0  0  0  0
    0.0000    0.0000    0.0000 C   0  0  0  0  0  0  0  0  0  0  0  0
    0.0000    0.0000    0.0000 N   0  0  0  0  0  0  0  0  0  0  0  0
    0.0000    0.0000    0.0000 C   0  0  0  0  0  0  0  0  0  0  0  0
    0.0000    0.0000    0.0000 N   0  0  0  0  0  0  0  0  0  0  0  0
    0.0000    0.0000    0.0000 C   0  0  0  0  0  0  0  0  0  0  0  0
    0.0000    0.0000    0.0000 C   0  0  0  0  0  0  0  0  0  0  0  0
    0.0000    0.0000    0.0000 C   0  0  0  0  0  0  0  0  0  0  0  0
    0.0000    0.0000    0.0000 C   0  0  0  0  0  0  0  0  0  0  0  0
    0.0000    0.0000    0.0000 C   0  0  0  0  0  0  0  0  0  0  0  0
    0.0000    0.0000    0.0000 C   0  0  0  0  0  0  0  0  0  0  0  0
    0.0000    0.0000    0.0000 N   0  0  0  0  0  0  0  0  0  0  0  0
    0.0000    0.0000    0.0000 C   0  0  0  0  0  0  0  0  0  0  0  0
    0.0000    0.0000    0.0000 O   0  0  0  0  0  0  0  0  0  0  0  0
    0.0000    0.0000    0.0000 C   0  0  0  0  0  0  0  0  0  0  0  0
    0.0000    0.0000    0.0000 C   0  0  0  0  0  0  0  0  0  0  0  0
    0.0000    0.0000    0.0000 C   0  0  0  0  0  0  0  0  0  0  0  0
    0.0000    0.0000    0.0000 C   0  0  0  0  0  0  0  0  0  0  0  0
    0.0000    0.0000    0.0000 F   0  0  0  0  0  0  0  0  0  0  0  0
    0.0000    0.0000    0.0000 C   0  0  0  0  0  0  0  0  0  0  0  0
    0.0000    0.0000    0.0000 F   0  0  0  0  0  0  0  0  0  0  0  0
    0.0000    0.0000    0.0000 C   0  0  0  0  0  0  0  0  0  0  0  0
    0.0000    0.0000    0.0000 N   0  0  0  0  0  0  0  0  0  0  0  0
    0.0000    0.0000    0.0000 C   0  0  0  0  0  0  0  0  0  0  0  0
    0.0000    0.0000    0.0000 C   0  0  0  0  0  0  0  0  0  0  0  0
    0.0000    0.0000    0.0000 C   0  0  0  0  0  0  0  0  0  0  0  0
    0.0000    0.0000    0.0000 C   0  0  0  0  0  0  0  0  0  0  0  0
    0.0000    0.0000    0.0000 C   0  0  0  0  0  0  0  0  0  0  0  0
    0.0000    0.0000    0.0000 C   0  0  0  0  0  0  0  0  0  0  0  0
  1  2  1  0
  2  3  1  0
  2  4  1  0
  4  5  2  0
  5  6  1  0
  6  7  1  0
  7  8  1  0
  8  9  1  0
  9 10  1  0
 10 11  1  0
 11 12  1  0
 12 13  1  0
 11 14  1  0
 14 15  1  0
 15 16  2  0
 15 17  1  0
 17 18  2  0
 18 19  1  0
 19 20  2  0
 20 21  1  0
 20 22  1  0
 22 23  1  0
 22 24  2  0
  6 25  2  0
 25 26  1  0
 26 27  2  0
 27 28  1  0
 28 29  2  0
 29 30  1  0
 30 31  2  0
 31  4  1  0
 13  8  1  0
 24 17  1  0
 31 26  1  0
M  END
>  <pIC50>  (57) 
6.785

>  <ChEMBL_ID>  (57) 
CHEMBL182150

>  <document_journal>  (57) 
Bioorg. Med. Chem. Lett.

>  <bao_endpoint>  (57) 
BAO_0000190

>  <potential_duplicate>  (57) 
False

>  <uo_units>  (57) 
UO_0000065

>  <canonical_smiles>  (57) 
CN(C)c1nc(N[C@@H]2CC[C@@H](CC2)NC(=O)c3ccc(F)c(F)c3)nc4ccccc14

>  <parent_molecule_chembl_id>  (57) 
CHEMBL182150

>  <assay_type>  (57) 
B

>  <src_id>  (57) 
1

>  <ligand_efficiency>  (57) 
{u'le': u'0.29', u'bei': u'15.48', u'sei': u'9.39', u'lle': u'1.74'}

>  <standard_flag>  (57) 
True

>  <molecule_chembl_id>  (57) 
CHEMBL182150

>  <target_organism>  (57) 
Homo sapiens

>  <standard_units>  (57) 
nM

>  <record_id>  (57) 
368214

>  <document_chembl_id>  (57) 
CHEMBL1142793

>  <bao_format>  (57) 
BAO_0000219

>  <data_validity_description>  (57) 
None

>  <activity_id>  (57) 
1432007

>  <standard_type>  (57) 
IC50

>  <target_chembl_id>  (57) 
CHEMBL1867

>  <data_validity_comment>  (57) 
None

>  <published_value>  (57) 
260

>  <document_year>  (57) 
2005

>  <target_pref_name>  (57) 
Alpha-2a adrenergic receptor

>  <assay_chembl_id>  (57) 
CHEMBL831139

>  <standard_relation>  (57) 
=

>  <assay_description>  (57) 
Inhibitory activity against alpha-2A adrenergic receptor by using [3H]MK-912 as radioligand expressed in COS-1 cells

>  <published_relation>  (57) 
=

>  <standard_value>  (57) 
260

>  <qudt_units>  (57) 
http://www.openphacts.org/units/Nanomolar

>  <target_tax_id>  (57) 
9606

>  <bao_label>  (57) 
cell-based format

>  <published_units>  (57) 
nM

>  <pchembl_value>  (57) 
6.59

>  <published_type>  (57) 
IC50

>  <activity_comment>  (57) 
None

$$$$

     RDKit          

 31 34  0  0  0  0  0  0  0  0999 V2000
    0.0000    0.0000    0.0000 C   0  0  0  0  0  0  0  0  0  0  0  0
    0.0000    0.0000    0.0000 N   0  0  0  0  0  0  0  0  0  0  0  0
    0.0000    0.0000    0.0000 C   0  0  0  0  0  0  0  0  0  0  0  0
    0.0000    0.0000    0.0000 C   0  0  0  0  0  0  0  0  0  0  0  0
    0.0000    0.0000    0.0000 N   0  0  0  0  0  0  0  0  0  0  0  0
    0.0000    0.0000    0.0000 C   0  0  0  0  0  0  0  0  0  0  0  0
    0.0000    0.0000    0.0000 N   0  0  0  0  0  0  0  0  0  0  0  0
    0.0000    0.0000    0.0000 C   0  0  0  0  0  0  0  0  0  0  0  0
    0.0000    0.0000    0.0000 C   0  0  0  0  0  0  0  0  0  0  0  0
    0.0000    0.0000    0.0000 C   0  0  0  0  0  0  0  0  0  0  0  0
    0.0000    0.0000    0.0000 C   0  0  0  0  0  0  0  0  0  0  0  0
    0.0000    0.0000    0.0000 C   0  0  0  0  0  0  0  0  0  0  0  0
    0.0000    0.0000    0.0000 C   0  0  0  0  0  0  0  0  0  0  0  0
    0.0000    0.0000    0.0000 N   0  0  0  0  0  0  0  0  0  0  0  0
    0.0000    0.0000    0.0000 C   0  0  0  0  0  0  0  0  0  0  0  0
    0.0000    0.0000    0.0000 O   0  0  0  0  0  0  0  0  0  0  0  0
    0.0000    0.0000    0.0000 C   0  0  0  0  0  0  0  0  0  0  0  0
    0.0000    0.0000    0.0000 C   0  0  0  0  0  0  0  0  0  0  0  0
    0.0000    0.0000    0.0000 C   0  0  0  0  0  0  0  0  0  0  0  0
    0.0000    0.0000    0.0000 C   0  0  0  0  0  0  0  0  0  0  0  0
    0.0000    0.0000    0.0000 Cl  0  0  0  0  0  0  0  0  0  0  0  0
    0.0000    0.0000    0.0000 C   0  0  0  0  0  0  0  0  0  0  0  0
    0.0000    0.0000    0.0000 Cl  0  0  0  0  0  0  0  0  0  0  0  0
    0.0000    0.0000    0.0000 C   0  0  0  0  0  0  0  0  0  0  0  0
    0.0000    0.0000    0.0000 N   0  0  0  0  0  0  0  0  0  0  0  0
    0.0000    0.0000    0.0000 C   0  0  0  0  0  0  0  0  0  0  0  0
    0.0000    0.0000    0.0000 C   0  0  0  0  0  0  0  0  0  0  0  0
    0.0000    0.0000    0.0000 C   0  0  0  0  0  0  0  0  0  0  0  0
    0.0000    0.0000    0.0000 C   0  0  0  0  0  0  0  0  0  0  0  0
    0.0000    0.0000    0.0000 C   0  0  0  0  0  0  0  0  0  0  0  0
    0.0000    0.0000    0.0000 C   0  0  0  0  0  0  0  0  0  0  0  0
  1  2  1  0
  2  3  1  0
  2  4  1  0
  4  5  2  0
  5  6  1  0
  6  7  1  0
  7  8  1  0
  8  9  1  0
  9 10  1  0
 10 11  1  0
 11 12  1  0
 12 13  1  0
 11 14  1  0
 14 15  1  0
 15 16  2  0
 15 17  1  0
 17 18  2  0
 18 19  1  0
 19 20  2  0
 20 21  1  0
 20 22  1  0
 22 23  1  0
 22 24  2  0
  6 25  2  0
 25 26  1  0
 26 27  2  0
 27 28  1  0
 28 29  2  0
 29 30  1  0
 30 31  2  0
 31  4  1  0
 13  8  1  0
 24 17  1  0
 31 26  1  0
M  END
>  <pIC50>  (58) 
7.33

>  <ChEMBL_ID>  (58) 
CHEMBL362400

>  <document_journal>  (58) 
Bioorg. Med. Chem. Lett.

>  <bao_endpoint>  (58) 
BAO_0000190

>  <potential_duplicate>  (58) 
False

>  <uo_units>  (58) 
UO_0000065

>  <canonical_smiles>  (58) 
CN(C)c1nc(N[C@@H]2CC[C@@H](CC2)NC(=O)c3ccc(Cl)c(Cl)c3)nc4ccccc14

>  <parent_molecule_chembl_id>  (58) 
CHEMBL362400

>  <assay_type>  (58) 
B

>  <src_id>  (58) 
1

>  <ligand_efficiency>  (58) 
{u'le': u'0.32', u'bei': u'15.99', u'sei': u'10.45', u'lle': u'1.56'}

>  <standard_flag>  (58) 
True

>  <molecule_chembl_id>  (58) 
CHEMBL362400

>  <target_organism>  (58) 
Homo sapiens

>  <standard_units>  (58) 
nM

>  <record_id>  (58) 
368244

>  <document_chembl_id>  (58) 
CHEMBL1142793

>  <bao_format>  (58) 
BAO_0000219

>  <data_validity_description>  (58) 
None

>  <activity_id>  (58) 
1432536

>  <standard_type>  (58) 
IC50

>  <target_chembl_id>  (58) 
CHEMBL1867

>  <data_validity_comment>  (58) 
None

>  <published_value>  (58) 
47

>  <document_year>  (58) 
2005

>  <target_pref_name>  (58) 
Alpha-2a adrenergic receptor

>  <assay_chembl_id>  (58) 
CHEMBL831139

>  <standard_relation>  (58) 
=

>  <assay_description>  (58) 
Inhibitory activity against alpha-2A adrenergic receptor by using [3H]MK-912 as radioligand expressed in COS-1 cells

>  <published_relation>  (58) 
=

>  <standard_value>  (58) 
47

>  <qudt_units>  (58) 
http://www.openphacts.org/units/Nanomolar

>  <target_tax_id>  (58) 
9606

>  <bao_label>  (58) 
cell-based format

>  <published_units>  (58) 
nM

>  <pchembl_value>  (58) 
7.33

>  <published_type>  (58) 
IC50

>  <activity_comment>  (58) 
None

$$$$

     RDKit          

 32 35  0  0  0  0  0  0  0  0999 V2000
    0.0000    0.0000    0.0000 C   0  0  0  0  0  0  0  0  0  0  0  0
    0.0000    0.0000    0.0000 N   0  0  0  0  0  0  0  0  0  0  0  0
    0.0000    0.0000    0.0000 C   0  0  0  0  0  0  0  0  0  0  0  0
    0.0000    0.0000    0.0000 C   0  0  0  0  0  0  0  0  0  0  0  0
    0.0000    0.0000    0.0000 N   0  0  0  0  0  0  0  0  0  0  0  0
    0.0000    0.0000    0.0000 C   0  0  0  0  0  0  0  0  0  0  0  0
    0.0000    0.0000    0.0000 N   0  0  0  0  0  0  0  0  0  0  0  0
    0.0000    0.0000    0.0000 C   0  0  0  0  0  0  0  0  0  0  0  0
    0.0000    0.0000    0.0000 C   0  0  0  0  0  0  0  0  0  0  0  0
    0.0000    0.0000    0.0000 C   0  0  0  0  0  0  0  0  0  0  0  0
    0.0000    0.0000    0.0000 C   0  0  0  0  0  0  0  0  0  0  0  0
    0.0000    0.0000    0.0000 C   0  0  0  0  0  0  0  0  0  0  0  0
    0.0000    0.0000    0.0000 C   0  0  0  0  0  0  0  0  0  0  0  0
    0.0000    0.0000    0.0000 N   0  0  0  0  0  0  0  0  0  0  0  0
    0.0000    0.0000    0.0000 C   0  0  0  0  0  0  0  0  0  0  0  0
    0.0000    0.0000    0.0000 O   0  0  0  0  0  0  0  0  0  0  0  0
    0.0000    0.0000    0.0000 C   0  0  0  0  0  0  0  0  0  0  0  0
    0.0000    0.0000    0.0000 C   0  0  0  0  0  0  0  0  0  0  0  0
    0.0000    0.0000    0.0000 C   0  0  0  0  0  0  0  0  0  0  0  0
    0.0000    0.0000    0.0000 C   0  0  0  0  0  0  0  0  0  0  0  0
    0.0000    0.0000    0.0000 F   0  0  0  0  0  0  0  0  0  0  0  0
    0.0000    0.0000    0.0000 C   0  0  0  0  0  0  0  0  0  0  0  0
    0.0000    0.0000    0.0000 F   0  0  0  0  0  0  0  0  0  0  0  0
    0.0000    0.0000    0.0000 C   0  0  0  0  0  0  0  0  0  0  0  0
    0.0000    0.0000    0.0000 F   0  0  0  0  0  0  0  0  0  0  0  0
    0.0000    0.0000    0.0000 N   0  0  0  0  0  0  0  0  0  0  0  0
    0.0000    0.0000    0.0000 C   0  0  0  0  0  0  0  0  0  0  0  0
    0.0000    0.0000    0.0000 C   0  0  0  0  0  0  0  0  0  0  0  0
    0.0000    0.0000    0.0000 C   0  0  0  0  0  0  0  0  0  0  0  0
    0.0000    0.0000    0.0000 C   0  0  0  0  0  0  0  0  0  0  0  0
    0.0000    0.0000    0.0000 C   0  0  0  0  0  0  0  0  0  0  0  0
    0.0000    0.0000    0.0000 C   0  0  0  0  0  0  0  0  0  0  0  0
  1  2  1  0
  2  3  1  0
  2  4  1  0
  4  5  2  0
  5  6  1  0
  6  7  1  0
  7  8  1  0
  8  9  1  0
  9 10  1  0
 10 11  1  0
 11 12  1  0
 12 13  1  0
 11 14  1  0
 14 15  1  0
 15 16  2  0
 15 17  1  0
 17 18  2  0
 18 19  1  0
 19 20  2  0
 20 21  1  0
 20 22  1  0
 22 23  1  0
 22 24  2  0
 24 25  1  0
  6 26  2  0
 26 27  1  0
 27 28  2  0
 28 29  1  0
 29 30  2  0
 30 31  1  0
 31 32  2  0
 32  4  1  0
 13  8  1  0
 24 17  1  0
 32 27  1  0
M  END
>  <pIC50>  (59) 
6.7

>  <ChEMBL_ID>  (59) 
CHEMBL360159

>  <document_journal>  (59) 
Bioorg. Med. Chem. Lett.

>  <bao_endpoint>  (59) 
BAO_0000190

>  <potential_duplicate>  (59) 
False

>  <uo_units>  (59) 
UO_0000065

>  <canonical_smiles>  (59) 
CN(C)c1nc(N[C@@H]2CC[C@@H](CC2)NC(=O)c3ccc(F)c(F)c3F)nc4ccccc14

>  <parent_molecule_chembl_id>  (59) 
CHEMBL360159

>  <assay_type>  (59) 
B

>  <src_id>  (59) 
1

>  <ligand_efficiency>  (59) 
{u'le': u'0.29', u'bei': u'15.11', u'sei': u'9.55', u'lle': u'1.65'}

>  <standard_flag>  (59) 
True

>  <molecule_chembl_id>  (59) 
CHEMBL360159

>  <target_organism>  (59) 
Homo sapiens

>  <standard_units>  (59) 
nM

>  <record_id>  (59) 
368280

>  <document_chembl_id>  (59) 
CHEMBL1142793

>  <bao_format>  (59) 
BAO_0000219

>  <data_validity_description>  (59) 
None

>  <activity_id>  (59) 
1432664

>  <standard_type>  (59) 
IC50

>  <target_chembl_id>  (59) 
CHEMBL1867

>  <data_validity_comment>  (59) 
None

>  <published_value>  (59) 
200

>  <document_year>  (59) 
2005

>  <target_pref_name>  (59) 
Alpha-2a adrenergic receptor

>  <assay_chembl_id>  (59) 
CHEMBL831139

>  <standard_relation>  (59) 
=

>  <assay_description>  (59) 
Inhibitory activity against alpha-2A adrenergic receptor by using [3H]MK-912 as radioligand expressed in COS-1 cells

>  <published_relation>  (59) 
=

>  <standard_value>  (59) 
200

>  <qudt_units>  (59) 
http://www.openphacts.org/units/Nanomolar

>  <target_tax_id>  (59) 
9606

>  <bao_label>  (59) 
cell-based format

>  <published_units>  (59) 
nM

>  <pchembl_value>  (59) 
6.7

>  <published_type>  (59) 
IC50

>  <activity_comment>  (59) 
None

$$$$

     RDKit          

 39 42  0  0  0  0  0  0  0  0999 V2000
    0.0000    0.0000    0.0000 C   0  0  0  0  0  0  0  0  0  0  0  0
    0.0000    0.0000    0.0000 N   0  0  0  0  0  0  0  0  0  0  0  0
    0.0000    0.0000    0.0000 C   0  0  0  0  0  0  0  0  0  0  0  0
    0.0000    0.0000    0.0000 C   0  0  0  0  0  0  0  0  0  0  0  0
    0.0000    0.0000    0.0000 N   0  0  0  0  0  0  0  0  0  0  0  0
    0.0000    0.0000    0.0000 C   0  0  0  0  0  0  0  0  0  0  0  0
    0.0000    0.0000    0.0000 N   0  0  0  0  0  0  0  0  0  0  0  0
    0.0000    0.0000    0.0000 C   0  0  0  0  0  0  0  0  0  0  0  0
    0.0000    0.0000    0.0000 C   0  0  0  0  0  0  0  0  0  0  0  0
    0.0000    0.0000    0.0000 C   0  0  0  0  0  0  0  0  0  0  0  0
    0.0000    0.0000    0.0000 C   0  0  0  0  0  0  0  0  0  0  0  0
    0.0000    0.0000    0.0000 C   0  0  0  0  0  0  0  0  0  0  0  0
    0.0000    0.0000    0.0000 C   0  0  0  0  0  0  0  0  0  0  0  0
    0.0000    0.0000    0.0000 N   0  0  0  0  0  0  0  0  0  0  0  0
    0.0000    0.0000    0.0000 C   0  0  0  0  0  0  0  0  0  0  0  0
    0.0000    0.0000    0.0000 S   0  0  0  0  0  0  0  0  0  0  0  0
    0.0000    0.0000    0.0000 O   0  0  0  0  0  0  0  0  0  0  0  0
    0.0000    0.0000    0.0000 O   0  0  0  0  0  0  0  0  0  0  0  0
    0.0000    0.0000    0.0000 C   0  0  0  0  0  0  0  0  0  0  0  0
    0.0000    0.0000    0.0000 C   0  0  0  0  0  0  0  0  0  0  0  0
    0.0000    0.0000    0.0000 C   0  0  0  0  0  0  0  0  0  0  0  0
    0.0000    0.0000    0.0000 C   0  0  0  0  0  0  0  0  0  0  0  0
    0.0000    0.0000    0.0000 Br  0  0  0  0  0  0  0  0  0  0  0  0
    0.0000    0.0000    0.0000 C   0  0  0  0  0  0  0  0  0  0  0  0
    0.0000    0.0000    0.0000 C   0  0  0  0  0  0  0  0  0  0  0  0
    0.0000    0.0000    0.0000 O   0  0  0  0  0  0  0  0  0  0  0  0
    0.0000    0.0000    0.0000 C   0  0  0  0  0  0  0  0  0  0  0  0
    0.0000    0.0000    0.0000 F   0  0  0  0  0  0  0  0  0  0  0  0
    0.0000    0.0000    0.0000 F   0  0  0  0  0  0  0  0  0  0  0  0
    0.0000    0.0000    0.0000 F   0  0  0  0  0  0  0  0  0  0  0  0
    0.0000    0.0000    0.0000 C   0  0  0  0  0  0  0  0  0  0  0  0
    0.0000    0.0000    0.0000 C   0  0  0  0  0  0  0  0  0  0  0  0
    0.0000    0.0000    0.0000 N   0  0  0  0  0  0  0  0  0  0  0  0
    0.0000    0.0000    0.0000 C   0  0  0  0  0  0  0  0  0  0  0  0
    0.0000    0.0000    0.0000 C   0  0  0  0  0  0  0  0  0  0  0  0
    0.0000    0.0000    0.0000 C   0  0  0  0  0  0  0  0  0  0  0  0
    0.0000    0.0000    0.0000 C   0  0  0  0  0  0  0  0  0  0  0  0
    0.0000    0.0000    0.0000 C   0  0  0  0  0  0  0  0  0  0  0  0
    0.0000    0.0000    0.0000 C   0  0  0  0  0  0  0  0  0  0  0  0
  1  2  1  0
  2  3  1  0
  2  4  1  0
  4  5  2  0
  5  6  1  0
  6  7  1  0
  7  8  1  0
  8  9  1  0
  9 10  1  0
 10 11  1  0
 11 12  1  0
 12 13  1  0
 13 14  1  0
 14 15  1  0
 14 16  1  0
 16 17  2  0
 16 18  2  0
 16 19  1  0
 19 20  2  0
 20 21  1  0
 21 22  2  0
 22 23  1  0
 22 24  1  0
 24 25  2  0
 25 26  1  0
 26 27  1  0
 27 28  1  0
 27 29  1  0
 27 30  1  0
 12 31  1  0
 31 32  1  0
  6 33  2  0
 33 34  1  0
 34 35  2  0
 35 36  1  0
 36 37  2  0
 37 38  1  0
 38 39  2  0
 39  4  1  0
 32  9  1  0
 25 19  1  0
 39 34  1  0
M  END
>  <pIC50>  (60) 
7.47

>  <ChEMBL_ID>  (60) 
CHEMBL181727

>  <document_journal>  (60) 
Bioorg. Med. Chem. Lett.

>  <bao_endpoint>  (60) 
BAO_0000190

>  <potential_duplicate>  (60) 
False

>  <uo_units>  (60) 
UO_0000065

>  <canonical_smiles>  (60) 
CN(C)c1nc(NCC2CCC(CN(C)S(=O)(=O)c3ccc(Br)cc3OC(F)(F)F)CC2)nc4ccccc14

>  <parent_molecule_chembl_id>  (60) 
CHEMBL181727

>  <assay_type>  (60) 
B

>  <src_id>  (60) 
1

>  <ligand_efficiency>  (60) 
{u'le': u'0.26', u'bei': u'11.85', u'sei': u'7.78', u'lle': u'-0.4'}

>  <standard_flag>  (60) 
True

>  <molecule_chembl_id>  (60) 
CHEMBL181727

>  <target_organism>  (60) 
Homo sapiens

>  <standard_units>  (60) 
nM

>  <record_id>  (60) 
367666

>  <document_chembl_id>  (60) 
CHEMBL1142793

>  <bao_format>  (60) 
BAO_0000219

>  <data_validity_description>  (60) 
None

>  <activity_id>  (60) 
1433069

>  <standard_type>  (60) 
IC50

>  <target_chembl_id>  (60) 
CHEMBL1867

>  <data_validity_comment>  (60) 
None

>  <published_value>  (60) 
34

>  <document_year>  (60) 
2005

>  <target_pref_name>  (60) 
Alpha-2a adrenergic receptor

>  <assay_chembl_id>  (60) 
CHEMBL831139

>  <standard_relation>  (60) 
=

>  <assay_description>  (60) 
Inhibitory activity against alpha-2A adrenergic receptor by using [3H]MK-912 as radioligand expressed in COS-1 cells

>  <published_relation>  (60) 
=

>  <standard_value>  (60) 
34

>  <qudt_units>  (60) 
http://www.openphacts.org/units/Nanomolar

>  <target_tax_id>  (60) 
9606

>  <bao_label>  (60) 
cell-based format

>  <published_units>  (60) 
nM

>  <pchembl_value>  (60) 
7.47

>  <published_type>  (60) 
IC50

>  <activity_comment>  (60) 
None

$$$$

     RDKit          

 38 41  0  0  0  0  0  0  0  0999 V2000
    0.0000    0.0000    0.0000 C   0  0  0  0  0  0  0  0  0  0  0  0
    0.0000    0.0000    0.0000 N   0  0  0  0  0  0  0  0  0  0  0  0
    0.0000    0.0000    0.0000 C   0  0  0  0  0  0  0  0  0  0  0  0
    0.0000    0.0000    0.0000 C   0  0  0  0  0  0  0  0  0  0  0  0
    0.0000    0.0000    0.0000 N   0  0  0  0  0  0  0  0  0  0  0  0
    0.0000    0.0000    0.0000 C   0  0  0  0  0  0  0  0  0  0  0  0
    0.0000    0.0000    0.0000 N   0  0  0  0  0  0  0  0  0  0  0  0
    0.0000    0.0000    0.0000 C   0  0  0  0  0  0  0  0  0  0  0  0
    0.0000    0.0000    0.0000 C   0  0  0  0  0  0  0  0  0  0  0  0
    0.0000    0.0000    0.0000 C   0  0  0  0  0  0  0  0  0  0  0  0
    0.0000    0.0000    0.0000 C   0  0  0  0  0  0  0  0  0  0  0  0
    0.0000    0.0000    0.0000 C   0  0  0  0  0  0  0  0  0  0  0  0
    0.0000    0.0000    0.0000 C   0  0  0  0  0  0  0  0  0  0  0  0
    0.0000    0.0000    0.0000 N   0  0  0  0  0  0  0  0  0  0  0  0
    0.0000    0.0000    0.0000 S   0  0  0  0  0  0  0  0  0  0  0  0
    0.0000    0.0000    0.0000 O   0  0  0  0  0  0  0  0  0  0  0  0
    0.0000    0.0000    0.0000 O   0  0  0  0  0  0  0  0  0  0  0  0
    0.0000    0.0000    0.0000 C   0  0  0  0  0  0  0  0  0  0  0  0
    0.0000    0.0000    0.0000 C   0  0  0  0  0  0  0  0  0  0  0  0
    0.0000    0.0000    0.0000 C   0  0  0  0  0  0  0  0  0  0  0  0
    0.0000    0.0000    0.0000 C   0  0  0  0  0  0  0  0  0  0  0  0
    0.0000    0.0000    0.0000 Br  0  0  0  0  0  0  0  0  0  0  0  0
    0.0000    0.0000    0.0000 C   0  0  0  0  0  0  0  0  0  0  0  0
    0.0000    0.0000    0.0000 C   0  0  0  0  0  0  0  0  0  0  0  0
    0.0000    0.0000    0.0000 O   0  0  0  0  0  0  0  0  0  0  0  0
    0.0000    0.0000    0.0000 C   0  0  0  0  0  0  0  0  0  0  0  0
    0.0000    0.0000    0.0000 F   0  0  0  0  0  0  0  0  0  0  0  0
    0.0000    0.0000    0.0000 F   0  0  0  0  0  0  0  0  0  0  0  0
    0.0000    0.0000    0.0000 F   0  0  0  0  0  0  0  0  0  0  0  0
    0.0000    0.0000    0.0000 C   0  0  0  0  0  0  0  0  0  0  0  0
    0.0000    0.0000    0.0000 C   0  0  0  0  0  0  0  0  0  0  0  0
    0.0000    0.0000    0.0000 N   0  0  0  0  0  0  0  0  0  0  0  0
    0.0000    0.0000    0.0000 C   0  0  0  0  0  0  0  0  0  0  0  0
    0.0000    0.0000    0.0000 C   0  0  0  0  0  0  0  0  0  0  0  0
    0.0000    0.0000    0.0000 C   0  0  0  0  0  0  0  0  0  0  0  0
    0.0000    0.0000    0.0000 C   0  0  0  0  0  0  0  0  0  0  0  0
    0.0000    0.0000    0.0000 C   0  0  0  0  0  0  0  0  0  0  0  0
    0.0000    0.0000    0.0000 C   0  0  0  0  0  0  0  0  0  0  0  0
  1  2  1  0
  2  3  1  0
  2  4  1  0
  4  5  2  0
  5  6  1  0
  6  7  1  0
  7  8  1  0
  8  9  1  0
  9 10  1  0
 10 11  1  0
 11 12  1  0
 12 13  1  0
 13 14  1  0
 14 15  1  0
 15 16  2  0
 15 17  2  0
 15 18  1  0
 18 19  2  0
 19 20  1  0
 20 21  2  0
 21 22  1  0
 21 23  1  0
 23 24  2  0
 24 25  1  0
 25 26  1  0
 26 27  1  0
 26 28  1  0
 26 29  1  0
 12 30  1  0
 30 31  1  0
  6 32  2  0
 32 33  1  0
 33 34  2  0
 34 35  1  0
 35 36  2  0
 36 37  1  0
 37 38  2  0
 38  4  1  0
 31  9  1  0
 24 18  1  0
 38 33  1  0
M  END
>  <pIC50>  (61) 
8.11

>  <ChEMBL_ID>  (61) 
CHEMBL193438

>  <document_journal>  (61) 
Bioorg. Med. Chem. Lett.

>  <bao_endpoint>  (61) 
BAO_0000190

>  <potential_duplicate>  (61) 
False

>  <uo_units>  (61) 
UO_0000065

>  <canonical_smiles>  (61) 
CN(C)c1nc(NCC2CCC(CNS(=O)(=O)c3ccc(Br)cc3OC(F)(F)F)CC2)nc4ccccc14

>  <parent_molecule_chembl_id>  (61) 
CHEMBL193438

>  <assay_type>  (61) 
B

>  <src_id>  (61) 
1

>  <ligand_efficiency>  (61) 
{u'le': u'0.29', u'bei': u'13.16', u'sei': u'7.74', u'lle': u'0.44'}

>  <standard_flag>  (61) 
True

>  <molecule_chembl_id>  (61) 
CHEMBL193438

>  <target_organism>  (61) 
Homo sapiens

>  <standard_units>  (61) 
nM

>  <record_id>  (61) 
394169

>  <document_chembl_id>  (61) 
CHEMBL1145250

>  <bao_format>  (61) 
BAO_0000219

>  <data_validity_description>  (61) 
None

>  <activity_id>  (61) 
1514828

>  <standard_type>  (61) 
IC50

>  <target_chembl_id>  (61) 
CHEMBL1867

>  <data_validity_comment>  (61) 
None

>  <published_value>  (61) 
7.7

>  <document_year>  (61) 
2005

>  <target_pref_name>  (61) 
Alpha-2a adrenergic receptor

>  <assay_chembl_id>  (61) 
CHEMBL831429

>  <standard_relation>  (61) 
=

>  <assay_description>  (61) 
Inhibitory activity against constitutively activated human Alpha-2A adrenergic receptor transiently expressed in COS-1 cells using [3H]MK-912

>  <published_relation>  (61) 
=

>  <standard_value>  (61) 
7.7

>  <qudt_units>  (61) 
http://www.openphacts.org/units/Nanomolar

>  <target_tax_id>  (61) 
9606

>  <bao_label>  (61) 
cell-based format

>  <published_units>  (61) 
nM

>  <pchembl_value>  (61) 
8.11

>  <published_type>  (61) 
IC50

>  <activity_comment>  (61) 
None

$$$$

     RDKit          

 34 38  0  0  0  0  0  0  0  0999 V2000
    0.0000    0.0000    0.0000 N   0  0  0  0  0  0  0  0  0  0  0  0
    0.0000    0.0000    0.0000 C   0  0  0  0  0  0  0  0  0  0  0  0
    0.0000    0.0000    0.0000 N   0  0  0  0  0  0  0  0  0  0  0  0
    0.0000    0.0000    0.0000 C   0  0  0  0  0  0  0  0  0  0  0  0
    0.0000    0.0000    0.0000 N   0  0  0  0  0  0  0  0  0  0  0  0
    0.0000    0.0000    0.0000 C   0  0  0  0  0  0  0  0  0  0  0  0
    0.0000    0.0000    0.0000 C   0  0  0  0  0  0  0  0  0  0  0  0
    0.0000    0.0000    0.0000 C   0  0  0  0  0  0  0  0  0  0  0  0
    0.0000    0.0000    0.0000 C   0  0  0  0  0  0  0  0  0  0  0  0
    0.0000    0.0000    0.0000 C   0  0  0  0  0  0  0  0  0  0  0  0
    0.0000    0.0000    0.0000 C   0  0  0  0  0  0  0  0  0  0  0  0
    0.0000    0.0000    0.0000 N   0  0  0  0  0  0  0  0  0  0  0  0
    0.0000    0.0000    0.0000 S   0  0  0  0  0  0  0  0  0  0  0  0
    0.0000    0.0000    0.0000 O   0  0  0  0  0  0  0  0  0  0  0  0
    0.0000    0.0000    0.0000 O   0  0  0  0  0  0  0  0  0  0  0  0
    0.0000    0.0000    0.0000 C   0  0  0  0  0  0  0  0  0  0  0  0
    0.0000    0.0000    0.0000 C   0  0  0  0  0  0  0  0  0  0  0  0
    0.0000    0.0000    0.0000 C   0  0  0  0  0  0  0  0  0  0  0  0
    0.0000    0.0000    0.0000 C   0  0  0  0  0  0  0  0  0  0  0  0
    0.0000    0.0000    0.0000 C   0  0  0  0  0  0  0  0  0  0  0  0
    0.0000    0.0000    0.0000 C   0  0  0  0  0  0  0  0  0  0  0  0
    0.0000    0.0000    0.0000 C   0  0  0  0  0  0  0  0  0  0  0  0
    0.0000    0.0000    0.0000 C   0  0  0  0  0  0  0  0  0  0  0  0
    0.0000    0.0000    0.0000 C   0  0  0  0  0  0  0  0  0  0  0  0
    0.0000    0.0000    0.0000 C   0  0  0  0  0  0  0  0  0  0  0  0
    0.0000    0.0000    0.0000 C   0  0  0  0  0  0  0  0  0  0  0  0
    0.0000    0.0000    0.0000 C   0  0  0  0  0  0  0  0  0  0  0  0
    0.0000    0.0000    0.0000 N   0  0  0  0  0  0  0  0  0  0  0  0
    0.0000    0.0000    0.0000 C   0  0  0  0  0  0  0  0  0  0  0  0
    0.0000    0.0000    0.0000 C   0  0  0  0  0  0  0  0  0  0  0  0
    0.0000    0.0000    0.0000 C   0  0  0  0  0  0  0  0  0  0  0  0
    0.0000    0.0000    0.0000 C   0  0  0  0  0  0  0  0  0  0  0  0
    0.0000    0.0000    0.0000 C   0  0  0  0  0  0  0  0  0  0  0  0
    0.0000    0.0000    0.0000 C   0  0  0  0  0  0  0  0  0  0  0  0
  1  2  1  0
  2  3  2  0
  3  4  1  0
  4  5  1  0
  5  6  1  0
  6  7  1  0
  7  8  1  0
  8  9  1  0
  9 10  1  0
 10 11  1  0
 11 12  1  0
 12 13  1  0
 13 14  2  0
 13 15  2  0
 13 16  1  0
 16 17  2  0
 17 18  1  0
 18 19  2  0
 19 20  1  0
 20 21  2  0
 21 22  1  0
 22 23  2  0
 23 24  1  0
 24 25  2  0
 10 26  1  0
 26 27  1  0
  4 28  2  0
 28 29  1  0
 29 30  2  0
 30 31  1  0
 31 32  2  0
 32 33  1  0
 33 34  2  0
 34  2  1  0
 27  7  1  0
 25 16  1  0
 25 20  1  0
 34 29  1  0
M  END
>  <pIC50>  (62) 
7.01

>  <ChEMBL_ID>  (62) 
CHEMBL17645

>  <document_journal>  (62) 
Bioorg. Med. Chem. Lett.

>  <bao_endpoint>  (62) 
BAO_0000190

>  <potential_duplicate>  (62) 
False

>  <uo_units>  (62) 
UO_0000065

>  <canonical_smiles>  (62) 
Nc1nc(NC[C@@H]2CC[C@@H](CNS(=O)(=O)c3cccc4ccccc34)CC2)nc5ccccc15

>  <parent_molecule_chembl_id>  (62) 
CHEMBL17645

>  <assay_type>  (62) 
B

>  <src_id>  (62) 
1

>  <ligand_efficiency>  (62) 
{u'le': u'0.28', u'bei': u'14.75', u'sei': u'5.92', u'lle': u'2.21'}

>  <standard_flag>  (62) 
True

>  <molecule_chembl_id>  (62) 
CHEMBL17645

>  <target_organism>  (62) 
Homo sapiens

>  <standard_units>  (62) 
nM

>  <record_id>  (62) 
394195

>  <document_chembl_id>  (62) 
CHEMBL1145250

>  <bao_format>  (62) 
BAO_0000219

>  <data_validity_description>  (62) 
None

>  <activity_id>  (62) 
1514941

>  <standard_type>  (62) 
IC50

>  <target_chembl_id>  (62) 
CHEMBL1867

>  <data_validity_comment>  (62) 
None

>  <published_value>  (62) 
97

>  <document_year>  (62) 
2005

>  <target_pref_name>  (62) 
Alpha-2a adrenergic receptor

>  <assay_chembl_id>  (62) 
CHEMBL831429

>  <standard_relation>  (62) 
=

>  <assay_description>  (62) 
Inhibitory activity against constitutively activated human Alpha-2A adrenergic receptor transiently expressed in COS-1 cells using [3H]MK-912

>  <published_relation>  (62) 
=

>  <standard_value>  (62) 
97

>  <qudt_units>  (62) 
http://www.openphacts.org/units/Nanomolar

>  <target_tax_id>  (62) 
9606

>  <bao_label>  (62) 
cell-based format

>  <published_units>  (62) 
nM

>  <pchembl_value>  (62) 
7.01

>  <published_type>  (62) 
IC50

>  <activity_comment>  (62) 
None

$$$$

     RDKit          

 36 39  0  0  0  0  0  0  0  0999 V2000
    0.0000    0.0000    0.0000 N   0  0  0  0  0  0  0  0  0  0  0  0
    0.0000    0.0000    0.0000 C   0  0  0  0  0  0  0  0  0  0  0  0
    0.0000    0.0000    0.0000 N   0  0  0  0  0  0  0  0  0  0  0  0
    0.0000    0.0000    0.0000 C   0  0  0  0  0  0  0  0  0  0  0  0
    0.0000    0.0000    0.0000 N   0  0  0  0  0  0  0  0  0  0  0  0
    0.0000    0.0000    0.0000 C   0  0  0  0  0  0  0  0  0  0  0  0
    0.0000    0.0000    0.0000 C   0  0  0  0  0  0  0  0  0  0  0  0
    0.0000    0.0000    0.0000 C   0  0  0  0  0  0  0  0  0  0  0  0
    0.0000    0.0000    0.0000 C   0  0  0  0  0  0  0  0  0  0  0  0
    0.0000    0.0000    0.0000 C   0  0  0  0  0  0  0  0  0  0  0  0
    0.0000    0.0000    0.0000 C   0  0  0  0  0  0  0  0  0  0  0  0
    0.0000    0.0000    0.0000 N   0  0  0  0  0  0  0  0  0  0  0  0
    0.0000    0.0000    0.0000 S   0  0  0  0  0  0  0  0  0  0  0  0
    0.0000    0.0000    0.0000 O   0  0  0  0  0  0  0  0  0  0  0  0
    0.0000    0.0000    0.0000 O   0  0  0  0  0  0  0  0  0  0  0  0
    0.0000    0.0000    0.0000 C   0  0  0  0  0  0  0  0  0  0  0  0
    0.0000    0.0000    0.0000 C   0  0  0  0  0  0  0  0  0  0  0  0
    0.0000    0.0000    0.0000 C   0  0  0  0  0  0  0  0  0  0  0  0
    0.0000    0.0000    0.0000 C   0  0  0  0  0  0  0  0  0  0  0  0
    0.0000    0.0000    0.0000 Br  0  0  0  0  0  0  0  0  0  0  0  0
    0.0000    0.0000    0.0000 C   0  0  0  0  0  0  0  0  0  0  0  0
    0.0000    0.0000    0.0000 C   0  0  0  0  0  0  0  0  0  0  0  0
    0.0000    0.0000    0.0000 O   0  0  0  0  0  0  0  0  0  0  0  0
    0.0000    0.0000    0.0000 C   0  0  0  0  0  0  0  0  0  0  0  0
    0.0000    0.0000    0.0000 F   0  0  0  0  0  0  0  0  0  0  0  0
    0.0000    0.0000    0.0000 F   0  0  0  0  0  0  0  0  0  0  0  0
    0.0000    0.0000    0.0000 F   0  0  0  0  0  0  0  0  0  0  0  0
    0.0000    0.0000    0.0000 C   0  0  0  0  0  0  0  0  0  0  0  0
    0.0000    0.0000    0.0000 C   0  0  0  0  0  0  0  0  0  0  0  0
    0.0000    0.0000    0.0000 N   0  0  0  0  0  0  0  0  0  0  0  0
    0.0000    0.0000    0.0000 C   0  0  0  0  0  0  0  0  0  0  0  0
    0.0000    0.0000    0.0000 C   0  0  0  0  0  0  0  0  0  0  0  0
    0.0000    0.0000    0.0000 C   0  0  0  0  0  0  0  0  0  0  0  0
    0.0000    0.0000    0.0000 C   0  0  0  0  0  0  0  0  0  0  0  0
    0.0000    0.0000    0.0000 C   0  0  0  0  0  0  0  0  0  0  0  0
    0.0000    0.0000    0.0000 C   0  0  0  0  0  0  0  0  0  0  0  0
  1  2  1  0
  2  3  2  0
  3  4  1  0
  4  5  1  0
  5  6  1  0
  6  7  1  0
  7  8  1  0
  8  9  1  0
  9 10  1  0
 10 11  1  0
 11 12  1  0
 12 13  1  0
 13 14  2  0
 13 15  2  0
 13 16  1  0
 16 17  2  0
 17 18  1  0
 18 19  2  0
 19 20  1  0
 19 21  1  0
 21 22  2  0
 22 23  1  0
 23 24  1  0
 24 25  1  0
 24 26  1  0
 24 27  1  0
 10 28  1  0
 28 29  1  0
  4 30  2  0
 30 31  1  0
 31 32  2  0
 32 33  1  0
 33 34  2  0
 34 35  1  0
 35 36  2  0
 36  2  1  0
 29  7  1  0
 22 16  1  0
 36 31  1  0
M  END
>  <pIC50>  (63) 
7.0

>  <ChEMBL_ID>  (63) 
CHEMBL192266

>  <document_journal>  (63) 
Bioorg. Med. Chem. Lett.

>  <bao_endpoint>  (63) 
BAO_0000190

>  <potential_duplicate>  (63) 
False

>  <uo_units>  (63) 
UO_0000065

>  <canonical_smiles>  (63) 
Nc1nc(NCC2CCC(CNS(=O)(=O)c3ccc(Br)cc3OC(F)(F)F)CC2)nc4ccccc14

>  <parent_molecule_chembl_id>  (63) 
CHEMBL192266

>  <assay_type>  (63) 
B

>  <src_id>  (63) 
1

>  <ligand_efficiency>  (63) 
{u'le': u'0.27', u'bei': u'11.9', u'sei': u'5.49', u'lle': u'0.24'}

>  <standard_flag>  (63) 
True

>  <molecule_chembl_id>  (63) 
CHEMBL192266

>  <target_organism>  (63) 
Homo sapiens

>  <standard_units>  (63) 
nM

>  <record_id>  (63) 
394220

>  <document_chembl_id>  (63) 
CHEMBL1145250

>  <bao_format>  (63) 
BAO_0000219

>  <data_validity_description>  (63) 
None

>  <activity_id>  (63) 
1514947

>  <standard_type>  (63) 
IC50

>  <target_chembl_id>  (63) 
CHEMBL1867

>  <data_validity_comment>  (63) 
None

>  <published_value>  (63) 
100

>  <document_year>  (63) 
2005

>  <target_pref_name>  (63) 
Alpha-2a adrenergic receptor

>  <assay_chembl_id>  (63) 
CHEMBL831429

>  <standard_relation>  (63) 
=

>  <assay_description>  (63) 
Inhibitory activity against constitutively activated human Alpha-2A adrenergic receptor transiently expressed in COS-1 cells using [3H]MK-912

>  <published_relation>  (63) 
=

>  <standard_value>  (63) 
100

>  <qudt_units>  (63) 
http://www.openphacts.org/units/Nanomolar

>  <target_tax_id>  (63) 
9606

>  <bao_label>  (63) 
cell-based format

>  <published_units>  (63) 
nM

>  <pchembl_value>  (63) 
7

>  <published_type>  (63) 
IC50

>  <activity_comment>  (63) 
None

$$$$

     RDKit          

 35 38  0  0  0  0  0  0  0  0999 V2000
    0.0000    0.0000    0.0000 F   0  0  0  0  0  0  0  0  0  0  0  0
    0.0000    0.0000    0.0000 C   0  0  0  0  0  0  0  0  0  0  0  0
    0.0000    0.0000    0.0000 F   0  0  0  0  0  0  0  0  0  0  0  0
    0.0000    0.0000    0.0000 F   0  0  0  0  0  0  0  0  0  0  0  0
    0.0000    0.0000    0.0000 O   0  0  0  0  0  0  0  0  0  0  0  0
    0.0000    0.0000    0.0000 C   0  0  0  0  0  0  0  0  0  0  0  0
    0.0000    0.0000    0.0000 C   0  0  0  0  0  0  0  0  0  0  0  0
    0.0000    0.0000    0.0000 C   0  0  0  0  0  0  0  0  0  0  0  0
    0.0000    0.0000    0.0000 Br  0  0  0  0  0  0  0  0  0  0  0  0
    0.0000    0.0000    0.0000 C   0  0  0  0  0  0  0  0  0  0  0  0
    0.0000    0.0000    0.0000 C   0  0  0  0  0  0  0  0  0  0  0  0
    0.0000    0.0000    0.0000 C   0  0  0  0  0  0  0  0  0  0  0  0
    0.0000    0.0000    0.0000 S   0  0  0  0  0  0  0  0  0  0  0  0
    0.0000    0.0000    0.0000 O   0  0  0  0  0  0  0  0  0  0  0  0
    0.0000    0.0000    0.0000 O   0  0  0  0  0  0  0  0  0  0  0  0
    0.0000    0.0000    0.0000 N   0  0  0  0  0  0  0  0  0  0  0  0
    0.0000    0.0000    0.0000 C   0  0  0  0  0  0  0  0  0  0  0  0
    0.0000    0.0000    0.0000 C   0  0  0  0  0  0  0  0  0  0  0  0
    0.0000    0.0000    0.0000 C   0  0  0  0  0  0  0  0  0  0  0  0
    0.0000    0.0000    0.0000 C   0  0  0  0  0  0  0  0  0  0  0  0
    0.0000    0.0000    0.0000 C   0  0  0  0  0  0  0  0  0  0  0  0
    0.0000    0.0000    0.0000 C   0  0  0  0  0  0  0  0  0  0  0  0
    0.0000    0.0000    0.0000 N   0  0  0  0  0  0  0  0  0  0  0  0
    0.0000    0.0000    0.0000 C   0  0  0  0  0  0  0  0  0  0  0  0
    0.0000    0.0000    0.0000 N   0  0  0  0  0  0  0  0  0  0  0  0
    0.0000    0.0000    0.0000 C   0  0  0  0  0  0  0  0  0  0  0  0
    0.0000    0.0000    0.0000 C   0  0  0  0  0  0  0  0  0  0  0  0
    0.0000    0.0000    0.0000 C   0  0  0  0  0  0  0  0  0  0  0  0
    0.0000    0.0000    0.0000 C   0  0  0  0  0  0  0  0  0  0  0  0
    0.0000    0.0000    0.0000 C   0  0  0  0  0  0  0  0  0  0  0  0
    0.0000    0.0000    0.0000 C   0  0  0  0  0  0  0  0  0  0  0  0
    0.0000    0.0000    0.0000 C   0  0  0  0  0  0  0  0  0  0  0  0
    0.0000    0.0000    0.0000 N   0  0  0  0  0  0  0  0  0  0  0  0
    0.0000    0.0000    0.0000 C   0  0  0  0  0  0  0  0  0  0  0  0
    0.0000    0.0000    0.0000 C   0  0  0  0  0  0  0  0  0  0  0  0
  1  2  1  0
  2  3  1  0
  2  4  1  0
  2  5  1  0
  5  6  1  0
  6  7  2  0
  7  8  1  0
  8  9  1  0
  8 10  2  0
 10 11  1  0
 11 12  2  0
 12 13  1  0
 13 14  2  0
 13 15  2  0
 13 16  1  0
 16 17  1  0
 17 18  1  0
 18 19  1  0
 19 20  1  0
 20 21  1  0
 21 22  1  0
 22 23  1  0
 23 24  1  0
 24 25  2  0
 25 26  1  0
 26 27  2  0
 27 28  1  0
 28 29  2  0
 29 30  1  0
 30 31  2  0
 31 32  1  0
 32 33  2  0
 21 34  1  0
 34 35  1  0
 12  6  1  0
 35 18  1  0
 33 24  1  0
 32 27  1  0
M  END
>  <pIC50>  (64) 
6.85

>  <ChEMBL_ID>  (64) 
CHEMBL425012

>  <document_journal>  (64) 
Bioorg. Med. Chem. Lett.

>  <bao_endpoint>  (64) 
BAO_0000190

>  <potential_duplicate>  (64) 
False

>  <uo_units>  (64) 
UO_0000065

>  <canonical_smiles>  (64) 
FC(F)(F)Oc1cc(Br)ccc1S(=O)(=O)NCC2CCC(CNc3ncc4ccccc4n3)CC2

>  <parent_molecule_chembl_id>  (64) 
CHEMBL425012

>  <assay_type>  (64) 
B

>  <src_id>  (64) 
1

>  <ligand_efficiency>  (64) 
{u'le': u'0.27', u'bei': u'11.95', u'sei': u'6.75', u'lle': u'-0.12'}

>  <standard_flag>  (64) 
True

>  <molecule_chembl_id>  (64) 
CHEMBL425012

>  <target_organism>  (64) 
Homo sapiens

>  <standard_units>  (64) 
nM

>  <record_id>  (64) 
393855

>  <document_chembl_id>  (64) 
CHEMBL1145250

>  <bao_format>  (64) 
BAO_0000219

>  <data_validity_description>  (64) 
None

>  <activity_id>  (64) 
1514950

>  <standard_type>  (64) 
IC50

>  <target_chembl_id>  (64) 
CHEMBL1867

>  <data_validity_comment>  (64) 
None

>  <published_value>  (64) 
140

>  <document_year>  (64) 
2005

>  <target_pref_name>  (64) 
Alpha-2a adrenergic receptor

>  <assay_chembl_id>  (64) 
CHEMBL831429

>  <standard_relation>  (64) 
=

>  <assay_description>  (64) 
Inhibitory activity against constitutively activated human Alpha-2A adrenergic receptor transiently expressed in COS-1 cells using [3H]MK-912

>  <published_relation>  (64) 
=

>  <standard_value>  (64) 
140

>  <qudt_units>  (64) 
http://www.openphacts.org/units/Nanomolar

>  <target_tax_id>  (64) 
9606

>  <bao_label>  (64) 
cell-based format

>  <published_units>  (64) 
nM

>  <pchembl_value>  (64) 
6.85

>  <published_type>  (64) 
IC50

>  <activity_comment>  (64) 
None

$$$$

     RDKit          

 27 29  0  0  0  0  0  0  0  0999 V2000
    0.0000    0.0000    0.0000 C   0  0  0  0  0  0  0  0  0  0  0  0
    0.0000    0.0000    0.0000 N   0  0  0  0  0  0  0  0  0  0  0  0
    0.0000    0.0000    0.0000 C   0  0  0  0  0  0  0  0  0  0  0  0
    0.0000    0.0000    0.0000 C   0  0  0  0  0  0  0  0  0  0  0  0
    0.0000    0.0000    0.0000 N   0  0  0  0  0  0  0  0  0  0  0  0
    0.0000    0.0000    0.0000 C   0  0  0  0  0  0  0  0  0  0  0  0
    0.0000    0.0000    0.0000 N   0  0  0  0  0  0  0  0  0  0  0  0
    0.0000    0.0000    0.0000 C   0  0  0  0  0  0  0  0  0  0  0  0
    0.0000    0.0000    0.0000 C   0  0  0  0  0  0  0  0  0  0  0  0
    0.0000    0.0000    0.0000 C   0  0  0  0  0  0  0  0  0  0  0  0
    0.0000    0.0000    0.0000 C   0  0  0  0  0  0  0  0  0  0  0  0
    0.0000    0.0000    0.0000 C   0  0  0  0  0  0  0  0  0  0  0  0
    0.0000    0.0000    0.0000 C   0  0  0  0  0  0  0  0  0  0  0  0
    0.0000    0.0000    0.0000 N   0  0  0  0  0  0  0  0  0  0  0  0
    0.0000    0.0000    0.0000 S   0  0  0  0  0  0  0  0  0  0  0  0
    0.0000    0.0000    0.0000 O   0  0  0  0  0  0  0  0  0  0  0  0
    0.0000    0.0000    0.0000 O   0  0  0  0  0  0  0  0  0  0  0  0
    0.0000    0.0000    0.0000 C   0  0  0  0  0  0  0  0  0  0  0  0
    0.0000    0.0000    0.0000 C   0  0  0  0  0  0  0  0  0  0  0  0
    0.0000    0.0000    0.0000 C   0  0  0  0  0  0  0  0  0  0  0  0
    0.0000    0.0000    0.0000 N   0  0  0  0  0  0  0  0  0  0  0  0
    0.0000    0.0000    0.0000 C   0  0  0  0  0  0  0  0  0  0  0  0
    0.0000    0.0000    0.0000 C   0  0  0  0  0  0  0  0  0  0  0  0
    0.0000    0.0000    0.0000 C   0  0  0  0  0  0  0  0  0  0  0  0
    0.0000    0.0000    0.0000 C   0  0  0  0  0  0  0  0  0  0  0  0
    0.0000    0.0000    0.0000 C   0  0  0  0  0  0  0  0  0  0  0  0
    0.0000    0.0000    0.0000 C   0  0  0  0  0  0  0  0  0  0  0  0
  1  2  1  0
  2  3  1  0
  2  4  1  0
  4  5  2  0
  5  6  1  0
  6  7  1  0
  7  8  1  0
  8  9  1  0
  9 10  1  0
 10 11  1  0
 11 12  1  0
 12 13  1  0
 13 14  1  0
 14 15  1  0
 15 16  2  0
 15 17  2  0
 15 18  1  0
 12 19  1  0
 19 20  1  0
  6 21  2  0
 21 22  1  0
 22 23  2  0
 23 24  1  0
 24 25  2  0
 25 26  1  0
 26 27  2  0
 27  4  1  0
 20  9  1  0
 27 22  1  0
M  END
>  <pIC50>  (65) 
7.07

>  <ChEMBL_ID>  (65) 
CHEMBL195123

>  <document_journal>  (65) 
Bioorg. Med. Chem. Lett.

>  <bao_endpoint>  (65) 
BAO_0000190

>  <potential_duplicate>  (65) 
False

>  <uo_units>  (65) 
UO_0000065

>  <canonical_smiles>  (65) 
CN(C)c1nc(NCC2CCC(CNS(=O)(=O)C)CC2)nc3ccccc13

>  <parent_molecule_chembl_id>  (65) 
CHEMBL195123

>  <assay_type>  (65) 
B

>  <src_id>  (65) 
1

>  <ligand_efficiency>  (65) 
{u'le': u'0.36', u'bei': u'18.05', u'sei': u'7.39', u'lle': u'3.85'}

>  <standard_flag>  (65) 
True

>  <molecule_chembl_id>  (65) 
CHEMBL195123

>  <target_organism>  (65) 
Homo sapiens

>  <standard_units>  (65) 
nM

>  <record_id>  (65) 
393875

>  <document_chembl_id>  (65) 
CHEMBL1145250

>  <bao_format>  (65) 
BAO_0000219

>  <data_validity_description>  (65) 
None

>  <activity_id>  (65) 
1514953

>  <standard_type>  (65) 
IC50

>  <target_chembl_id>  (65) 
CHEMBL1867

>  <data_validity_comment>  (65) 
None

>  <published_value>  (65) 
86

>  <document_year>  (65) 
2005

>  <target_pref_name>  (65) 
Alpha-2a adrenergic receptor

>  <assay_chembl_id>  (65) 
CHEMBL831429

>  <standard_relation>  (65) 
=

>  <assay_description>  (65) 
Inhibitory activity against constitutively activated human Alpha-2A adrenergic receptor transiently expressed in COS-1 cells using [3H]MK-912

>  <published_relation>  (65) 
=

>  <standard_value>  (65) 
86

>  <qudt_units>  (65) 
http://www.openphacts.org/units/Nanomolar

>  <target_tax_id>  (65) 
9606

>  <bao_label>  (65) 
cell-based format

>  <published_units>  (65) 
nM

>  <pchembl_value>  (65) 
7.07

>  <published_type>  (65) 
IC50

>  <activity_comment>  (65) 
None

$$$$

     RDKit          

 30 32  0  0  0  0  0  0  0  0999 V2000
    0.0000    0.0000    0.0000 C   0  0  0  0  0  0  0  0  0  0  0  0
    0.0000    0.0000    0.0000 C   0  0  0  0  0  0  0  0  0  0  0  0
    0.0000    0.0000    0.0000 C   0  0  0  0  0  0  0  0  0  0  0  0
    0.0000    0.0000    0.0000 C   0  0  0  0  0  0  0  0  0  0  0  0
    0.0000    0.0000    0.0000 S   0  0  0  0  0  0  0  0  0  0  0  0
    0.0000    0.0000    0.0000 O   0  0  0  0  0  0  0  0  0  0  0  0
    0.0000    0.0000    0.0000 O   0  0  0  0  0  0  0  0  0  0  0  0
    0.0000    0.0000    0.0000 N   0  0  0  0  0  0  0  0  0  0  0  0
    0.0000    0.0000    0.0000 C   0  0  0  0  0  0  0  0  0  0  0  0
    0.0000    0.0000    0.0000 C   0  0  0  0  0  0  0  0  0  0  0  0
    0.0000    0.0000    0.0000 C   0  0  0  0  0  0  0  0  0  0  0  0
    0.0000    0.0000    0.0000 C   0  0  0  0  0  0  0  0  0  0  0  0
    0.0000    0.0000    0.0000 C   0  0  0  0  0  0  0  0  0  0  0  0
    0.0000    0.0000    0.0000 C   0  0  0  0  0  0  0  0  0  0  0  0
    0.0000    0.0000    0.0000 N   0  0  0  0  0  0  0  0  0  0  0  0
    0.0000    0.0000    0.0000 C   0  0  0  0  0  0  0  0  0  0  0  0
    0.0000    0.0000    0.0000 N   0  0  0  0  0  0  0  0  0  0  0  0
    0.0000    0.0000    0.0000 C   0  0  0  0  0  0  0  0  0  0  0  0
    0.0000    0.0000    0.0000 N   0  0  0  0  0  0  0  0  0  0  0  0
    0.0000    0.0000    0.0000 C   0  0  0  0  0  0  0  0  0  0  0  0
    0.0000    0.0000    0.0000 C   0  0  0  0  0  0  0  0  0  0  0  0
    0.0000    0.0000    0.0000 C   0  0  0  0  0  0  0  0  0  0  0  0
    0.0000    0.0000    0.0000 C   0  0  0  0  0  0  0  0  0  0  0  0
    0.0000    0.0000    0.0000 C   0  0  0  0  0  0  0  0  0  0  0  0
    0.0000    0.0000    0.0000 C   0  0  0  0  0  0  0  0  0  0  0  0
    0.0000    0.0000    0.0000 C   0  0  0  0  0  0  0  0  0  0  0  0
    0.0000    0.0000    0.0000 C   0  0  0  0  0  0  0  0  0  0  0  0
    0.0000    0.0000    0.0000 N   0  0  0  0  0  0  0  0  0  0  0  0
    0.0000    0.0000    0.0000 C   0  0  0  0  0  0  0  0  0  0  0  0
    0.0000    0.0000    0.0000 C   0  0  0  0  0  0  0  0  0  0  0  0
  1  2  1  0
  2  3  1  0
  3  4  1  0
  4  5  1  0
  5  6  2  0
  5  7  2  0
  5  8  1  0
  8  9  1  0
  9 10  1  0
 10 11  1  0
 11 12  1  0
 12 13  1  0
 13 14  1  0
 14 15  1  0
 15 16  1  0
 16 17  2  0
 17 18  1  0
 18 19  1  0
 19 20  1  0
 19 21  1  0
 18 22  2  0
 22 23  1  0
 23 24  2  0
 24 25  1  0
 25 26  2  0
 26 27  1  0
 27 28  2  0
 13 29  1  0
 29 30  1  0
 30 10  1  0
 28 16  1  0
 27 22  1  0
M  END
>  <pIC50>  (66) 
7.24

>  <ChEMBL_ID>  (66) 
CHEMBL193666

>  <document_journal>  (66) 
Bioorg. Med. Chem. Lett.

>  <bao_endpoint>  (66) 
BAO_0000190

>  <potential_duplicate>  (66) 
False

>  <uo_units>  (66) 
UO_0000065

>  <canonical_smiles>  (66) 
CCCCS(=O)(=O)NCC1CCC(CNc2nc(N(C)C)c3ccccc3n2)CC1

>  <parent_molecule_chembl_id>  (66) 
CHEMBL193666

>  <assay_type>  (66) 
B

>  <src_id>  (66) 
1

>  <ligand_efficiency>  (66) 
{u'le': u'0.33', u'bei': u'16.69', u'sei': u'7.57', u'lle': u'2.69'}

>  <standard_flag>  (66) 
True

>  <molecule_chembl_id>  (66) 
CHEMBL193666

>  <target_organism>  (66) 
Homo sapiens

>  <standard_units>  (66) 
nM

>  <record_id>  (66) 
393919

>  <document_chembl_id>  (66) 
CHEMBL1145250

>  <bao_format>  (66) 
BAO_0000219

>  <data_validity_description>  (66) 
None

>  <activity_id>  (66) 
1514959

>  <standard_type>  (66) 
IC50

>  <target_chembl_id>  (66) 
CHEMBL1867

>  <data_validity_comment>  (66) 
None

>  <published_value>  (66) 
58

>  <document_year>  (66) 
2005

>  <target_pref_name>  (66) 
Alpha-2a adrenergic receptor

>  <assay_chembl_id>  (66) 
CHEMBL831429

>  <standard_relation>  (66) 
=

>  <assay_description>  (66) 
Inhibitory activity against constitutively activated human Alpha-2A adrenergic receptor transiently expressed in COS-1 cells using [3H]MK-912

>  <published_relation>  (66) 
=

>  <standard_value>  (66) 
58

>  <qudt_units>  (66) 
http://www.openphacts.org/units/Nanomolar

>  <target_tax_id>  (66) 
9606

>  <bao_label>  (66) 
cell-based format

>  <published_units>  (66) 
nM

>  <pchembl_value>  (66) 
7.24

>  <published_type>  (66) 
IC50

>  <activity_comment>  (66) 
None

$$$$

     RDKit          

 37 40  0  0  0  0  0  0  0  0999 V2000
    0.0000    0.0000    0.0000 C   0  0  0  0  0  0  0  0  0  0  0  0
    0.0000    0.0000    0.0000 N   0  0  0  0  0  0  0  0  0  0  0  0
    0.0000    0.0000    0.0000 C   0  0  0  0  0  0  0  0  0  0  0  0
    0.0000    0.0000    0.0000 C   0  0  0  0  0  0  0  0  0  0  0  0
    0.0000    0.0000    0.0000 N   0  0  0  0  0  0  0  0  0  0  0  0
    0.0000    0.0000    0.0000 C   0  0  0  0  0  0  0  0  0  0  0  0
    0.0000    0.0000    0.0000 N   0  0  0  0  0  0  0  0  0  0  0  0
    0.0000    0.0000    0.0000 C   0  0  0  0  0  0  0  0  0  0  0  0
    0.0000    0.0000    0.0000 C   0  0  0  0  0  0  0  0  0  0  0  0
    0.0000    0.0000    0.0000 C   0  0  0  0  0  0  0  0  0  0  0  0
    0.0000    0.0000    0.0000 C   0  0  0  0  0  0  0  0  0  0  0  0
    0.0000    0.0000    0.0000 C   0  0  0  0  0  0  0  0  0  0  0  0
    0.0000    0.0000    0.0000 C   0  0  0  0  0  0  0  0  0  0  0  0
    0.0000    0.0000    0.0000 C   0  0  0  0  0  0  0  0  0  0  0  0
    0.0000    0.0000    0.0000 N   0  0  0  0  0  0  0  0  0  0  0  0
    0.0000    0.0000    0.0000 S   0  0  0  0  0  0  0  0  0  0  0  0
    0.0000    0.0000    0.0000 O   0  0  0  0  0  0  0  0  0  0  0  0
    0.0000    0.0000    0.0000 O   0  0  0  0  0  0  0  0  0  0  0  0
    0.0000    0.0000    0.0000 C   0  0  0  0  0  0  0  0  0  0  0  0
    0.0000    0.0000    0.0000 C   0  0  0  0  0  0  0  0  0  0  0  0
    0.0000    0.0000    0.0000 C   0  0  0  0  0  0  0  0  0  0  0  0
    0.0000    0.0000    0.0000 C   0  0  0  0  0  0  0  0  0  0  0  0
    0.0000    0.0000    0.0000 Br  0  0  0  0  0  0  0  0  0  0  0  0
    0.0000    0.0000    0.0000 C   0  0  0  0  0  0  0  0  0  0  0  0
    0.0000    0.0000    0.0000 C   0  0  0  0  0  0  0  0  0  0  0  0
    0.0000    0.0000    0.0000 O   0  0  0  0  0  0  0  0  0  0  0  0
    0.0000    0.0000    0.0000 C   0  0  0  0  0  0  0  0  0  0  0  0
    0.0000    0.0000    0.0000 F   0  0  0  0  0  0  0  0  0  0  0  0
    0.0000    0.0000    0.0000 F   0  0  0  0  0  0  0  0  0  0  0  0
    0.0000    0.0000    0.0000 F   0  0  0  0  0  0  0  0  0  0  0  0
    0.0000    0.0000    0.0000 N   0  0  0  0  0  0  0  0  0  0  0  0
    0.0000    0.0000    0.0000 C   0  0  0  0  0  0  0  0  0  0  0  0
    0.0000    0.0000    0.0000 C   0  0  0  0  0  0  0  0  0  0  0  0
    0.0000    0.0000    0.0000 C   0  0  0  0  0  0  0  0  0  0  0  0
    0.0000    0.0000    0.0000 C   0  0  0  0  0  0  0  0  0  0  0  0
    0.0000    0.0000    0.0000 C   0  0  0  0  0  0  0  0  0  0  0  0
    0.0000    0.0000    0.0000 C   0  0  0  0  0  0  0  0  0  0  0  0
  1  2  1  0
  2  3  1  0
  2  4  1  0
  4  5  2  0
  5  6  1  0
  6  7  1  0
  7  8  1  0
  8  9  1  0
  9 10  1  0
 10 11  1  0
 11 12  1  0
 12 13  1  0
 13 14  1  0
 12 15  1  0
 15 16  1  0
 16 17  2  0
 16 18  2  0
 16 19  1  0
 19 20  2  0
 20 21  1  0
 21 22  2  0
 22 23  1  0
 22 24  1  0
 24 25  2  0
 25 26  1  0
 26 27  1  0
 27 28  1  0
 27 29  1  0
 27 30  1  0
  6 31  2  0
 31 32  1  0
 32 33  2  0
 33 34  1  0
 34 35  2  0
 35 36  1  0
 36 37  2  0
 37  4  1  0
 14  9  1  0
 25 19  1  0
 37 32  1  0
M  END
>  <pIC50>  (67) 
7.68

>  <ChEMBL_ID>  (67) 
CHEMBL193970

>  <document_journal>  (67) 
Bioorg. Med. Chem. Lett.

>  <bao_endpoint>  (67) 
BAO_0000190

>  <potential_duplicate>  (67) 
False

>  <uo_units>  (67) 
UO_0000065

>  <canonical_smiles>  (67) 
CN(C)c1nc(NCC2CCC(CC2)NS(=O)(=O)c3ccc(Br)cc3OC(F)(F)F)nc4ccccc14

>  <parent_molecule_chembl_id>  (67) 
CHEMBL193970

>  <assay_type>  (67) 
B

>  <src_id>  (67) 
1

>  <ligand_efficiency>  (67) 
{u'le': u'0.28', u'bei': u'12.74', u'sei': u'7.32', u'lle': u'0.34'}

>  <standard_flag>  (67) 
True

>  <molecule_chembl_id>  (67) 
CHEMBL193970

>  <target_organism>  (67) 
Homo sapiens

>  <standard_units>  (67) 
nM

>  <record_id>  (67) 
393966

>  <document_chembl_id>  (67) 
CHEMBL1145250

>  <bao_format>  (67) 
BAO_0000219

>  <data_validity_description>  (67) 
None

>  <activity_id>  (67) 
1514965

>  <standard_type>  (67) 
IC50

>  <target_chembl_id>  (67) 
CHEMBL1867

>  <data_validity_comment>  (67) 
None

>  <published_value>  (67) 
21

>  <document_year>  (67) 
2005

>  <target_pref_name>  (67) 
Alpha-2a adrenergic receptor

>  <assay_chembl_id>  (67) 
CHEMBL831429

>  <standard_relation>  (67) 
=

>  <assay_description>  (67) 
Inhibitory activity against constitutively activated human Alpha-2A adrenergic receptor transiently expressed in COS-1 cells using [3H]MK-912

>  <published_relation>  (67) 
=

>  <standard_value>  (67) 
21

>  <qudt_units>  (67) 
http://www.openphacts.org/units/Nanomolar

>  <target_tax_id>  (67) 
9606

>  <bao_label>  (67) 
cell-based format

>  <published_units>  (67) 
nM

>  <pchembl_value>  (67) 
7.68

>  <published_type>  (67) 
IC50

>  <activity_comment>  (67) 
None

$$$$

     RDKit          

 37 40  0  0  0  0  0  0  0  0999 V2000
    0.0000    0.0000    0.0000 C   0  0  0  0  0  0  0  0  0  0  0  0
    0.0000    0.0000    0.0000 N   0  0  0  0  0  0  0  0  0  0  0  0
    0.0000    0.0000    0.0000 C   0  0  0  0  0  0  0  0  0  0  0  0
    0.0000    0.0000    0.0000 C   0  0  0  0  0  0  0  0  0  0  0  0
    0.0000    0.0000    0.0000 N   0  0  0  0  0  0  0  0  0  0  0  0
    0.0000    0.0000    0.0000 C   0  0  0  0  0  0  0  0  0  0  0  0
    0.0000    0.0000    0.0000 N   0  0  0  0  0  0  0  0  0  0  0  0
    0.0000    0.0000    0.0000 C   0  0  0  0  0  0  0  0  0  0  0  0
    0.0000    0.0000    0.0000 C   0  0  0  0  0  0  0  0  0  0  0  0
    0.0000    0.0000    0.0000 C   0  0  0  0  0  0  0  0  0  0  0  0
    0.0000    0.0000    0.0000 C   0  0  0  0  0  0  0  0  0  0  0  0
    0.0000    0.0000    0.0000 C   0  0  0  0  0  0  0  0  0  0  0  0
    0.0000    0.0000    0.0000 N   0  0  0  0  0  0  0  0  0  0  0  0
    0.0000    0.0000    0.0000 S   0  0  0  0  0  0  0  0  0  0  0  0
    0.0000    0.0000    0.0000 O   0  0  0  0  0  0  0  0  0  0  0  0
    0.0000    0.0000    0.0000 O   0  0  0  0  0  0  0  0  0  0  0  0
    0.0000    0.0000    0.0000 C   0  0  0  0  0  0  0  0  0  0  0  0
    0.0000    0.0000    0.0000 C   0  0  0  0  0  0  0  0  0  0  0  0
    0.0000    0.0000    0.0000 C   0  0  0  0  0  0  0  0  0  0  0  0
    0.0000    0.0000    0.0000 C   0  0  0  0  0  0  0  0  0  0  0  0
    0.0000    0.0000    0.0000 Br  0  0  0  0  0  0  0  0  0  0  0  0
    0.0000    0.0000    0.0000 C   0  0  0  0  0  0  0  0  0  0  0  0
    0.0000    0.0000    0.0000 C   0  0  0  0  0  0  0  0  0  0  0  0
    0.0000    0.0000    0.0000 O   0  0  0  0  0  0  0  0  0  0  0  0
    0.0000    0.0000    0.0000 C   0  0  0  0  0  0  0  0  0  0  0  0
    0.0000    0.0000    0.0000 F   0  0  0  0  0  0  0  0  0  0  0  0
    0.0000    0.0000    0.0000 F   0  0  0  0  0  0  0  0  0  0  0  0
    0.0000    0.0000    0.0000 F   0  0  0  0  0  0  0  0  0  0  0  0
    0.0000    0.0000    0.0000 C   0  0  0  0  0  0  0  0  0  0  0  0
    0.0000    0.0000    0.0000 C   0  0  0  0  0  0  0  0  0  0  0  0
    0.0000    0.0000    0.0000 N   0  0  0  0  0  0  0  0  0  0  0  0
    0.0000    0.0000    0.0000 C   0  0  0  0  0  0  0  0  0  0  0  0
    0.0000    0.0000    0.0000 C   0  0  0  0  0  0  0  0  0  0  0  0
    0.0000    0.0000    0.0000 C   0  0  0  0  0  0  0  0  0  0  0  0
    0.0000    0.0000    0.0000 C   0  0  0  0  0  0  0  0  0  0  0  0
    0.0000    0.0000    0.0000 C   0  0  0  0  0  0  0  0  0  0  0  0
    0.0000    0.0000    0.0000 C   0  0  0  0  0  0  0  0  0  0  0  0
  1  2  1  0
  2  3  1  0
  2  4  1  0
  4  5  2  0
  5  6  1  0
  6  7  1  0
  7  8  1  0
  8  9  1  0
  9 10  1  0
 10 11  1  0
 11 12  1  0
 12 13  1  0
 13 14  1  0
 14 15  2  0
 14 16  2  0
 14 17  1  0
 17 18  2  0
 18 19  1  0
 19 20  2  0
 20 21  1  0
 20 22  1  0
 22 23  2  0
 23 24  1  0
 24 25  1  0
 25 26  1  0
 25 27  1  0
 25 28  1  0
 11 29  1  0
 29 30  1  0
  6 31  2  0
 31 32  1  0
 32 33  2  0
 33 34  1  0
 34 35  2  0
 35 36  1  0
 36 37  2  0
 37  4  1  0
 30  8  1  0
 23 17  1  0
 37 32  1  0
M  END
>  <pIC50>  (68) 
6.96

>  <ChEMBL_ID>  (68) 
CHEMBL194602

>  <document_journal>  (68) 
Bioorg. Med. Chem. Lett.

>  <bao_endpoint>  (68) 
BAO_0000190

>  <potential_duplicate>  (68) 
False

>  <uo_units>  (68) 
UO_0000065

>  <canonical_smiles>  (68) 
CN(C)c1nc(NC2CCC(CNS(=O)(=O)c3ccc(Br)cc3OC(F)(F)F)CC2)nc4ccccc14

>  <parent_molecule_chembl_id>  (68) 
CHEMBL194602

>  <assay_type>  (68) 
B

>  <src_id>  (68) 
1

>  <ligand_efficiency>  (68) 
{u'le': u'0.26', u'bei': u'11.55', u'sei': u'6.64', u'lle': u'-0.38'}

>  <standard_flag>  (68) 
True

>  <molecule_chembl_id>  (68) 
CHEMBL194602

>  <target_organism>  (68) 
Homo sapiens

>  <standard_units>  (68) 
nM

>  <record_id>  (68) 
393990

>  <document_chembl_id>  (68) 
CHEMBL1145250

>  <bao_format>  (68) 
BAO_0000219

>  <data_validity_description>  (68) 
None

>  <activity_id>  (68) 
1515070

>  <standard_type>  (68) 
IC50

>  <target_chembl_id>  (68) 
CHEMBL1867

>  <data_validity_comment>  (68) 
None

>  <published_value>  (68) 
110

>  <document_year>  (68) 
2005

>  <target_pref_name>  (68) 
Alpha-2a adrenergic receptor

>  <assay_chembl_id>  (68) 
CHEMBL831429

>  <standard_relation>  (68) 
=

>  <assay_description>  (68) 
Inhibitory activity against constitutively activated human Alpha-2A adrenergic receptor transiently expressed in COS-1 cells using [3H]MK-912

>  <published_relation>  (68) 
=

>  <standard_value>  (68) 
110

>  <qudt_units>  (68) 
http://www.openphacts.org/units/Nanomolar

>  <target_tax_id>  (68) 
9606

>  <bao_label>  (68) 
cell-based format

>  <published_units>  (68) 
nM

>  <pchembl_value>  (68) 
6.96

>  <published_type>  (68) 
IC50

>  <activity_comment>  (68) 
None

$$$$

     RDKit          

 36 39  0  0  0  0  0  0  0  0999 V2000
    0.0000    0.0000    0.0000 C   0  0  0  0  0  0  0  0  0  0  0  0
    0.0000    0.0000    0.0000 N   0  0  0  0  0  0  0  0  0  0  0  0
    0.0000    0.0000    0.0000 C   0  0  0  0  0  0  0  0  0  0  0  0
    0.0000    0.0000    0.0000 C   0  0  0  0  0  0  0  0  0  0  0  0
    0.0000    0.0000    0.0000 N   0  0  0  0  0  0  0  0  0  0  0  0
    0.0000    0.0000    0.0000 C   0  0  0  0  0  0  0  0  0  0  0  0
    0.0000    0.0000    0.0000 N   0  0  0  0  0  0  0  0  0  0  0  0
    0.0000    0.0000    0.0000 C   0  0  0  0  0  0  0  0  0  0  0  0
    0.0000    0.0000    0.0000 C   0  0  0  0  0  0  0  0  0  0  0  0
    0.0000    0.0000    0.0000 C   0  0  0  0  0  0  0  0  0  0  0  0
    0.0000    0.0000    0.0000 C   0  0  0  0  0  0  0  0  0  0  0  0
    0.0000    0.0000    0.0000 C   0  0  0  0  0  0  0  0  0  0  0  0
    0.0000    0.0000    0.0000 C   0  0  0  0  0  0  0  0  0  0  0  0
    0.0000    0.0000    0.0000 N   0  0  0  0  0  0  0  0  0  0  0  0
    0.0000    0.0000    0.0000 S   0  0  0  0  0  0  0  0  0  0  0  0
    0.0000    0.0000    0.0000 O   0  0  0  0  0  0  0  0  0  0  0  0
    0.0000    0.0000    0.0000 O   0  0  0  0  0  0  0  0  0  0  0  0
    0.0000    0.0000    0.0000 C   0  0  0  0  0  0  0  0  0  0  0  0
    0.0000    0.0000    0.0000 C   0  0  0  0  0  0  0  0  0  0  0  0
    0.0000    0.0000    0.0000 C   0  0  0  0  0  0  0  0  0  0  0  0
    0.0000    0.0000    0.0000 C   0  0  0  0  0  0  0  0  0  0  0  0
    0.0000    0.0000    0.0000 Br  0  0  0  0  0  0  0  0  0  0  0  0
    0.0000    0.0000    0.0000 C   0  0  0  0  0  0  0  0  0  0  0  0
    0.0000    0.0000    0.0000 C   0  0  0  0  0  0  0  0  0  0  0  0
    0.0000    0.0000    0.0000 O   0  0  0  0  0  0  0  0  0  0  0  0
    0.0000    0.0000    0.0000 C   0  0  0  0  0  0  0  0  0  0  0  0
    0.0000    0.0000    0.0000 F   0  0  0  0  0  0  0  0  0  0  0  0
    0.0000    0.0000    0.0000 F   0  0  0  0  0  0  0  0  0  0  0  0
    0.0000    0.0000    0.0000 F   0  0  0  0  0  0  0  0  0  0  0  0
    0.0000    0.0000    0.0000 N   0  0  0  0  0  0  0  0  0  0  0  0
    0.0000    0.0000    0.0000 C   0  0  0  0  0  0  0  0  0  0  0  0
    0.0000    0.0000    0.0000 C   0  0  0  0  0  0  0  0  0  0  0  0
    0.0000    0.0000    0.0000 C   0  0  0  0  0  0  0  0  0  0  0  0
    0.0000    0.0000    0.0000 C   0  0  0  0  0  0  0  0  0  0  0  0
    0.0000    0.0000    0.0000 C   0  0  0  0  0  0  0  0  0  0  0  0
    0.0000    0.0000    0.0000 C   0  0  0  0  0  0  0  0  0  0  0  0
  1  2  1  0
  2  3  1  0
  2  4  1  0
  4  5  2  0
  5  6  1  0
  6  7  1  0
  7  8  1  0
  8  9  1  0
  9 10  1  0
 10 11  1  0
 11 12  1  0
 12 13  1  0
 11 14  1  0
 14 15  1  0
 15 16  2  0
 15 17  2  0
 15 18  1  0
 18 19  2  0
 19 20  1  0
 20 21  2  0
 21 22  1  0
 21 23  1  0
 23 24  2  0
 24 25  1  0
 25 26  1  0
 26 27  1  0
 26 28  1  0
 26 29  1  0
  6 30  2  0
 30 31  1  0
 31 32  2  0
 32 33  1  0
 33 34  2  0
 34 35  1  0
 35 36  2  0
 36  4  1  0
 13  8  1  0
 24 18  1  0
 36 31  1  0
M  END
>  <pIC50>  (69) 
7.33

>  <ChEMBL_ID>  (69) 
CHEMBL193771

>  <document_journal>  (69) 
Bioorg. Med. Chem. Lett.

>  <bao_endpoint>  (69) 
BAO_0000190

>  <potential_duplicate>  (69) 
False

>  <uo_units>  (69) 
UO_0000065

>  <canonical_smiles>  (69) 
CN(C)c1nc(NC2CCC(CC2)NS(=O)(=O)c3ccc(Br)cc3OC(F)(F)F)nc4ccccc14

>  <parent_molecule_chembl_id>  (69) 
CHEMBL193771

>  <assay_type>  (69) 
B

>  <src_id>  (69) 
1

>  <ligand_efficiency>  (69) 
{u'le': u'0.28', u'bei': u'12.45', u'sei': u'6.99', u'lle': u'0.32'}

>  <standard_flag>  (69) 
True

>  <molecule_chembl_id>  (69) 
CHEMBL193771

>  <target_organism>  (69) 
Homo sapiens

>  <standard_units>  (69) 
nM

>  <record_id>  (69) 
394013

>  <document_chembl_id>  (69) 
CHEMBL1145250

>  <bao_format>  (69) 
BAO_0000219

>  <data_validity_description>  (69) 
None

>  <activity_id>  (69) 
1515073

>  <standard_type>  (69) 
IC50

>  <target_chembl_id>  (69) 
CHEMBL1867

>  <data_validity_comment>  (69) 
None

>  <published_value>  (69) 
47

>  <document_year>  (69) 
2005

>  <target_pref_name>  (69) 
Alpha-2a adrenergic receptor

>  <assay_chembl_id>  (69) 
CHEMBL831429

>  <standard_relation>  (69) 
=

>  <assay_description>  (69) 
Inhibitory activity against constitutively activated human Alpha-2A adrenergic receptor transiently expressed in COS-1 cells using [3H]MK-912

>  <published_relation>  (69) 
=

>  <standard_value>  (69) 
47

>  <qudt_units>  (69) 
http://www.openphacts.org/units/Nanomolar

>  <target_tax_id>  (69) 
9606

>  <bao_label>  (69) 
cell-based format

>  <published_units>  (69) 
nM

>  <pchembl_value>  (69) 
7.33

>  <published_type>  (69) 
IC50

>  <activity_comment>  (69) 
None

$$$$

     RDKit          

 34 37  0  0  0  0  0  0  0  0999 V2000
    0.0000    0.0000    0.0000 F   0  0  0  0  0  0  0  0  0  0  0  0
    0.0000    0.0000    0.0000 C   0  0  0  0  0  0  0  0  0  0  0  0
    0.0000    0.0000    0.0000 F   0  0  0  0  0  0  0  0  0  0  0  0
    0.0000    0.0000    0.0000 F   0  0  0  0  0  0  0  0  0  0  0  0
    0.0000    0.0000    0.0000 O   0  0  0  0  0  0  0  0  0  0  0  0
    0.0000    0.0000    0.0000 C   0  0  0  0  0  0  0  0  0  0  0  0
    0.0000    0.0000    0.0000 C   0  0  0  0  0  0  0  0  0  0  0  0
    0.0000    0.0000    0.0000 C   0  0  0  0  0  0  0  0  0  0  0  0
    0.0000    0.0000    0.0000 Br  0  0  0  0  0  0  0  0  0  0  0  0
    0.0000    0.0000    0.0000 C   0  0  0  0  0  0  0  0  0  0  0  0
    0.0000    0.0000    0.0000 C   0  0  0  0  0  0  0  0  0  0  0  0
    0.0000    0.0000    0.0000 C   0  0  0  0  0  0  0  0  0  0  0  0
    0.0000    0.0000    0.0000 S   0  0  0  0  0  0  0  0  0  0  0  0
    0.0000    0.0000    0.0000 O   0  0  0  0  0  0  0  0  0  0  0  0
    0.0000    0.0000    0.0000 O   0  0  0  0  0  0  0  0  0  0  0  0
    0.0000    0.0000    0.0000 N   0  0  0  0  0  0  0  0  0  0  0  0
    0.0000    0.0000    0.0000 C   0  0  0  0  0  0  0  0  0  0  0  0
    0.0000    0.0000    0.0000 C   0  0  0  0  0  0  0  0  0  0  0  0
    0.0000    0.0000    0.0000 C   0  0  0  0  0  0  0  0  0  0  0  0
    0.0000    0.0000    0.0000 C   0  0  0  0  0  0  0  0  0  0  0  0
    0.0000    0.0000    0.0000 C   0  0  0  0  0  0  0  0  0  0  0  0
    0.0000    0.0000    0.0000 C   0  0  0  0  0  0  0  0  0  0  0  0
    0.0000    0.0000    0.0000 C   0  0  0  0  0  0  0  0  0  0  0  0
    0.0000    0.0000    0.0000 N   0  0  0  0  0  0  0  0  0  0  0  0
    0.0000    0.0000    0.0000 C   0  0  0  0  0  0  0  0  0  0  0  0
    0.0000    0.0000    0.0000 N   0  0  0  0  0  0  0  0  0  0  0  0
    0.0000    0.0000    0.0000 C   0  0  0  0  0  0  0  0  0  0  0  0
    0.0000    0.0000    0.0000 C   0  0  0  0  0  0  0  0  0  0  0  0
    0.0000    0.0000    0.0000 C   0  0  0  0  0  0  0  0  0  0  0  0
    0.0000    0.0000    0.0000 C   0  0  0  0  0  0  0  0  0  0  0  0
    0.0000    0.0000    0.0000 C   0  0  0  0  0  0  0  0  0  0  0  0
    0.0000    0.0000    0.0000 C   0  0  0  0  0  0  0  0  0  0  0  0
    0.0000    0.0000    0.0000 C   0  0  0  0  0  0  0  0  0  0  0  0
    0.0000    0.0000    0.0000 N   0  0  0  0  0  0  0  0  0  0  0  0
  1  2  1  0
  2  3  1  0
  2  4  1  0
  2  5  1  0
  5  6  1  0
  6  7  2  0
  7  8  1  0
  8  9  1  0
  8 10  2  0
 10 11  1  0
 11 12  2  0
 12 13  1  0
 13 14  2  0
 13 15  2  0
 13 16  1  0
 16 17  1  0
 17 18  1  0
 18 19  1  0
 19 20  1  0
 20 21  1  0
 21 22  1  0
 22 23  1  0
 21 24  1  0
 24 25  1  0
 25 26  2  0
 26 27  1  0
 27 28  2  0
 28 29  1  0
 29 30  2  0
 30 31  1  0
 31 32  2  0
 32 33  1  0
 33 34  2  0
 12  6  1  0
 23 18  1  0
 34 25  1  0
 33 28  1  0
M  END
>  <pIC50>  (70) 
6.89

>  <ChEMBL_ID>  (70) 
CHEMBL195810

>  <document_journal>  (70) 
Bioorg. Med. Chem. Lett.

>  <bao_endpoint>  (70) 
BAO_0000190

>  <potential_duplicate>  (70) 
False

>  <uo_units>  (70) 
UO_0000065

>  <canonical_smiles>  (70) 
FC(F)(F)Oc1cc(Br)ccc1S(=O)(=O)NCC2CCC(CC2)Nc3ncc4ccccc4n3

>  <parent_molecule_chembl_id>  (70) 
CHEMBL195810

>  <assay_type>  (70) 
B

>  <src_id>  (70) 
1

>  <ligand_efficiency>  (70) 
{u'le': u'0.28', u'bei': u'12.31', u'sei': u'6.78', u'lle': u'0.25'}

>  <standard_flag>  (70) 
True

>  <molecule_chembl_id>  (70) 
CHEMBL195810

>  <target_organism>  (70) 
Homo sapiens

>  <standard_units>  (70) 
nM

>  <record_id>  (70) 
394093

>  <document_chembl_id>  (70) 
CHEMBL1145250

>  <bao_format>  (70) 
BAO_0000219

>  <data_validity_description>  (70) 
None

>  <activity_id>  (70) 
1515085

>  <standard_type>  (70) 
IC50

>  <target_chembl_id>  (70) 
CHEMBL1867

>  <data_validity_comment>  (70) 
None

>  <published_value>  (70) 
130

>  <document_year>  (70) 
2005

>  <target_pref_name>  (70) 
Alpha-2a adrenergic receptor

>  <assay_chembl_id>  (70) 
CHEMBL831429

>  <standard_relation>  (70) 
=

>  <assay_description>  (70) 
Inhibitory activity against constitutively activated human Alpha-2A adrenergic receptor transiently expressed in COS-1 cells using [3H]MK-912

>  <published_relation>  (70) 
=

>  <standard_value>  (70) 
130

>  <qudt_units>  (70) 
http://www.openphacts.org/units/Nanomolar

>  <target_tax_id>  (70) 
9606

>  <bao_label>  (70) 
cell-based format

>  <published_units>  (70) 
nM

>  <pchembl_value>  (70) 
6.89

>  <published_type>  (70) 
IC50

>  <activity_comment>  (70) 
None

$$$$

     RDKit          

 33 36  0  0  0  0  0  0  0  0999 V2000
    0.0000    0.0000    0.0000 F   0  0  0  0  0  0  0  0  0  0  0  0
    0.0000    0.0000    0.0000 C   0  0  0  0  0  0  0  0  0  0  0  0
    0.0000    0.0000    0.0000 F   0  0  0  0  0  0  0  0  0  0  0  0
    0.0000    0.0000    0.0000 F   0  0  0  0  0  0  0  0  0  0  0  0
    0.0000    0.0000    0.0000 O   0  0  0  0  0  0  0  0  0  0  0  0
    0.0000    0.0000    0.0000 C   0  0  0  0  0  0  0  0  0  0  0  0
    0.0000    0.0000    0.0000 C   0  0  0  0  0  0  0  0  0  0  0  0
    0.0000    0.0000    0.0000 C   0  0  0  0  0  0  0  0  0  0  0  0
    0.0000    0.0000    0.0000 Br  0  0  0  0  0  0  0  0  0  0  0  0
    0.0000    0.0000    0.0000 C   0  0  0  0  0  0  0  0  0  0  0  0
    0.0000    0.0000    0.0000 C   0  0  0  0  0  0  0  0  0  0  0  0
    0.0000    0.0000    0.0000 C   0  0  0  0  0  0  0  0  0  0  0  0
    0.0000    0.0000    0.0000 S   0  0  0  0  0  0  0  0  0  0  0  0
    0.0000    0.0000    0.0000 O   0  0  0  0  0  0  0  0  0  0  0  0
    0.0000    0.0000    0.0000 O   0  0  0  0  0  0  0  0  0  0  0  0
    0.0000    0.0000    0.0000 N   0  0  0  0  0  0  0  0  0  0  0  0
    0.0000    0.0000    0.0000 C   0  0  0  0  0  0  0  0  0  0  0  0
    0.0000    0.0000    0.0000 C   0  0  0  0  0  0  0  0  0  0  0  0
    0.0000    0.0000    0.0000 C   0  0  0  0  0  0  0  0  0  0  0  0
    0.0000    0.0000    0.0000 C   0  0  0  0  0  0  0  0  0  0  0  0
    0.0000    0.0000    0.0000 C   0  0  0  0  0  0  0  0  0  0  0  0
    0.0000    0.0000    0.0000 C   0  0  0  0  0  0  0  0  0  0  0  0
    0.0000    0.0000    0.0000 N   0  0  0  0  0  0  0  0  0  0  0  0
    0.0000    0.0000    0.0000 C   0  0  0  0  0  0  0  0  0  0  0  0
    0.0000    0.0000    0.0000 N   0  0  0  0  0  0  0  0  0  0  0  0
    0.0000    0.0000    0.0000 C   0  0  0  0  0  0  0  0  0  0  0  0
    0.0000    0.0000    0.0000 C   0  0  0  0  0  0  0  0  0  0  0  0
    0.0000    0.0000    0.0000 C   0  0  0  0  0  0  0  0  0  0  0  0
    0.0000    0.0000    0.0000 C   0  0  0  0  0  0  0  0  0  0  0  0
    0.0000    0.0000    0.0000 C   0  0  0  0  0  0  0  0  0  0  0  0
    0.0000    0.0000    0.0000 C   0  0  0  0  0  0  0  0  0  0  0  0
    0.0000    0.0000    0.0000 C   0  0  0  0  0  0  0  0  0  0  0  0
    0.0000    0.0000    0.0000 N   0  0  0  0  0  0  0  0  0  0  0  0
  1  2  1  0
  2  3  1  0
  2  4  1  0
  2  5  1  0
  5  6  1  0
  6  7  2  0
  7  8  1  0
  8  9  1  0
  8 10  2  0
 10 11  1  0
 11 12  2  0
 12 13  1  0
 13 14  2  0
 13 15  2  0
 13 16  1  0
 16 17  1  0
 17 18  1  0
 18 19  1  0
 19 20  1  0
 20 21  1  0
 21 22  1  0
 20 23  1  0
 23 24  1  0
 24 25  2  0
 25 26  1  0
 26 27  2  0
 27 28  1  0
 28 29  2  0
 29 30  1  0
 30 31  2  0
 31 32  1  0
 32 33  2  0
 12  6  1  0
 22 17  1  0
 33 24  1  0
 32 27  1  0
M  END
>  <pIC50>  (71) 
7.24

>  <ChEMBL_ID>  (71) 
CHEMBL195346

>  <document_journal>  (71) 
Bioorg. Med. Chem. Lett.

>  <bao_endpoint>  (71) 
BAO_0000190

>  <potential_duplicate>  (71) 
False

>  <uo_units>  (71) 
UO_0000065

>  <canonical_smiles>  (71) 
FC(F)(F)Oc1cc(Br)ccc1S(=O)(=O)NC2CCC(CC2)Nc3ncc4ccccc4n3

>  <parent_molecule_chembl_id>  (71) 
CHEMBL195346

>  <assay_type>  (71) 
B

>  <src_id>  (71) 
1

>  <ligand_efficiency>  (71) 
{u'le': u'0.3', u'bei': u'13.28', u'sei': u'7.13', u'lle': u'0.93'}

>  <standard_flag>  (71) 
True

>  <molecule_chembl_id>  (71) 
CHEMBL195346

>  <target_organism>  (71) 
Homo sapiens

>  <standard_units>  (71) 
nM

>  <record_id>  (71) 
394118

>  <document_chembl_id>  (71) 
CHEMBL1145250

>  <bao_format>  (71) 
BAO_0000219

>  <data_validity_description>  (71) 
None

>  <activity_id>  (71) 
1515088

>  <standard_type>  (71) 
IC50

>  <target_chembl_id>  (71) 
CHEMBL1867

>  <data_validity_comment>  (71) 
None

>  <published_value>  (71) 
57

>  <document_year>  (71) 
2005

>  <target_pref_name>  (71) 
Alpha-2a adrenergic receptor

>  <assay_chembl_id>  (71) 
CHEMBL831429

>  <standard_relation>  (71) 
=

>  <assay_description>  (71) 
Inhibitory activity against constitutively activated human Alpha-2A adrenergic receptor transiently expressed in COS-1 cells using [3H]MK-912

>  <published_relation>  (71) 
=

>  <standard_value>  (71) 
57

>  <qudt_units>  (71) 
http://www.openphacts.org/units/Nanomolar

>  <target_tax_id>  (71) 
9606

>  <bao_label>  (71) 
cell-based format

>  <published_units>  (71) 
nM

>  <pchembl_value>  (71) 
7.24

>  <published_type>  (71) 
IC50

>  <activity_comment>  (71) 
None

$$$$

     RDKit          

 36 39  0  0  0  0  0  0  0  0999 V2000
    0.0000    0.0000    0.0000 C   0  0  0  0  0  0  0  0  0  0  0  0
    0.0000    0.0000    0.0000 N   0  0  0  0  0  0  0  0  0  0  0  0
    0.0000    0.0000    0.0000 C   0  0  0  0  0  0  0  0  0  0  0  0
    0.0000    0.0000    0.0000 C   0  0  0  0  0  0  0  0  0  0  0  0
    0.0000    0.0000    0.0000 N   0  0  0  0  0  0  0  0  0  0  0  0
    0.0000    0.0000    0.0000 C   0  0  0  0  0  0  0  0  0  0  0  0
    0.0000    0.0000    0.0000 N   0  0  0  0  0  0  0  0  0  0  0  0
    0.0000    0.0000    0.0000 C   0  0  0  0  0  0  0  0  0  0  0  0
    0.0000    0.0000    0.0000 C   0  0  0  0  0  0  0  0  0  0  0  0
    0.0000    0.0000    0.0000 C   0  0  0  0  0  0  0  0  0  0  0  0
    0.0000    0.0000    0.0000 C   0  0  0  0  0  0  0  0  0  0  0  0
    0.0000    0.0000    0.0000 N   0  0  0  0  0  0  0  0  0  0  0  0
    0.0000    0.0000    0.0000 C   0  0  0  0  0  0  0  0  0  0  0  0
    0.0000    0.0000    0.0000 C   0  0  0  0  0  0  0  0  0  0  0  0
    0.0000    0.0000    0.0000 S   0  0  0  0  0  0  0  0  0  0  0  0
    0.0000    0.0000    0.0000 O   0  0  0  0  0  0  0  0  0  0  0  0
    0.0000    0.0000    0.0000 O   0  0  0  0  0  0  0  0  0  0  0  0
    0.0000    0.0000    0.0000 C   0  0  0  0  0  0  0  0  0  0  0  0
    0.0000    0.0000    0.0000 C   0  0  0  0  0  0  0  0  0  0  0  0
    0.0000    0.0000    0.0000 C   0  0  0  0  0  0  0  0  0  0  0  0
    0.0000    0.0000    0.0000 C   0  0  0  0  0  0  0  0  0  0  0  0
    0.0000    0.0000    0.0000 Br  0  0  0  0  0  0  0  0  0  0  0  0
    0.0000    0.0000    0.0000 C   0  0  0  0  0  0  0  0  0  0  0  0
    0.0000    0.0000    0.0000 C   0  0  0  0  0  0  0  0  0  0  0  0
    0.0000    0.0000    0.0000 O   0  0  0  0  0  0  0  0  0  0  0  0
    0.0000    0.0000    0.0000 C   0  0  0  0  0  0  0  0  0  0  0  0
    0.0000    0.0000    0.0000 F   0  0  0  0  0  0  0  0  0  0  0  0
    0.0000    0.0000    0.0000 F   0  0  0  0  0  0  0  0  0  0  0  0
    0.0000    0.0000    0.0000 F   0  0  0  0  0  0  0  0  0  0  0  0
    0.0000    0.0000    0.0000 N   0  0  0  0  0  0  0  0  0  0  0  0
    0.0000    0.0000    0.0000 C   0  0  0  0  0  0  0  0  0  0  0  0
    0.0000    0.0000    0.0000 C   0  0  0  0  0  0  0  0  0  0  0  0
    0.0000    0.0000    0.0000 C   0  0  0  0  0  0  0  0  0  0  0  0
    0.0000    0.0000    0.0000 C   0  0  0  0  0  0  0  0  0  0  0  0
    0.0000    0.0000    0.0000 C   0  0  0  0  0  0  0  0  0  0  0  0
    0.0000    0.0000    0.0000 C   0  0  0  0  0  0  0  0  0  0  0  0
  1  2  1  0
  2  3  1  0
  2  4  1  0
  4  5  2  0
  5  6  1  0
  6  7  1  0
  7  8  1  0
  8  9  1  0
  9 10  1  0
 10 11  1  0
 11 12  1  0
 12 13  1  0
 13 14  1  0
 12 15  1  0
 15 16  2  0
 15 17  2  0
 15 18  1  0
 18 19  2  0
 19 20  1  0
 20 21  2  0
 21 22  1  0
 21 23  1  0
 23 24  2  0
 24 25  1  0
 25 26  1  0
 26 27  1  0
 26 28  1  0
 26 29  1  0
  6 30  2  0
 30 31  1  0
 31 32  2  0
 32 33  1  0
 33 34  2  0
 34 35  1  0
 35 36  2  0
 36  4  1  0
 14  9  1  0
 24 18  1  0
 36 31  1  0
M  END
>  <pIC50>  (72) 
8.25

>  <ChEMBL_ID>  (72) 
CHEMBL194173

>  <document_journal>  (72) 
Bioorg. Med. Chem. Lett.

>  <bao_endpoint>  (72) 
BAO_0000190

>  <potential_duplicate>  (72) 
False

>  <uo_units>  (72) 
UO_0000065

>  <canonical_smiles>  (72) 
CN(C)c1nc(NCC2CCN(CC2)S(=O)(=O)c3ccc(Br)cc3OC(F)(F)F)nc4ccccc14

>  <parent_molecule_chembl_id>  (72) 
CHEMBL194173

>  <assay_type>  (72) 
B

>  <src_id>  (72) 
1

>  <ligand_efficiency>  (72) 
{u'le': u'0.31', u'bei': u'14.02', u'sei': u'8.59', u'lle': u'1.65'}

>  <standard_flag>  (72) 
True

>  <molecule_chembl_id>  (72) 
CHEMBL194173

>  <target_organism>  (72) 
Homo sapiens

>  <standard_units>  (72) 
nM

>  <record_id>  (72) 
394144

>  <document_chembl_id>  (72) 
CHEMBL1145250

>  <bao_format>  (72) 
BAO_0000219

>  <data_validity_description>  (72) 
None

>  <activity_id>  (72) 
1515091

>  <standard_type>  (72) 
IC50

>  <target_chembl_id>  (72) 
CHEMBL1867

>  <data_validity_comment>  (72) 
None

>  <published_value>  (72) 
5.6

>  <document_year>  (72) 
2005

>  <target_pref_name>  (72) 
Alpha-2a adrenergic receptor

>  <assay_chembl_id>  (72) 
CHEMBL831429

>  <standard_relation>  (72) 
=

>  <assay_description>  (72) 
Inhibitory activity against constitutively activated human Alpha-2A adrenergic receptor transiently expressed in COS-1 cells using [3H]MK-912

>  <published_relation>  (72) 
=

>  <standard_value>  (72) 
5.6

>  <qudt_units>  (72) 
http://www.openphacts.org/units/Nanomolar

>  <target_tax_id>  (72) 
9606

>  <bao_label>  (72) 
cell-based format

>  <published_units>  (72) 
nM

>  <pchembl_value>  (72) 
8.25

>  <published_type>  (72) 
IC50

>  <activity_comment>  (72) 
None

$$$$

     RDKit          

 25 26  0  0  0  0  0  0  0  0999 V2000
    0.0000    0.0000    0.0000 C   0  0  0  0  0  0  0  0  0  0  0  0
    0.0000    0.0000    0.0000 N   0  0  0  0  0  0  0  0  0  0  0  0
    0.0000    0.0000    0.0000 C   0  0  0  0  0  0  0  0  0  0  0  0
    0.0000    0.0000    0.0000 C   0  0  0  0  0  0  0  0  0  0  0  0
    0.0000    0.0000    0.0000 C   0  0  0  0  0  0  0  0  0  0  0  0
    0.0000    0.0000    0.0000 C   0  0  0  0  0  0  0  0  0  0  0  0
    0.0000    0.0000    0.0000 O   0  0  0  0  0  0  0  0  0  0  0  0
    0.0000    0.0000    0.0000 C   0  0  0  0  0  0  0  0  0  0  0  0
    0.0000    0.0000    0.0000 C   0  0  0  0  0  0  0  0  0  0  0  0
    0.0000    0.0000    0.0000 C   0  0  0  0  0  0  0  0  0  0  0  0
    0.0000    0.0000    0.0000 C   0  0  0  0  0  0  0  0  0  0  0  0
    0.0000    0.0000    0.0000 C   0  0  0  0  0  0  0  0  0  0  0  0
    0.0000    0.0000    0.0000 C   0  0  0  0  0  0  0  0  0  0  0  0
    0.0000    0.0000    0.0000 N   0  0  0  0  0  0  0  0  0  0  0  0
    0.0000    0.0000    0.0000 C   0  0  0  0  0  0  0  0  0  0  0  0
    0.0000    0.0000    0.0000 O   0  0  0  0  0  0  0  0  0  0  0  0
    0.0000    0.0000    0.0000 C   0  0  0  0  0  0  0  0  0  0  0  0
    0.0000    0.0000    0.0000 C   0  0  0  0  0  0  0  0  0  0  0  0
    0.0000    0.0000    0.0000 C   0  0  0  0  0  0  0  0  0  0  0  0
    0.0000    0.0000    0.0000 Br  0  0  0  0  0  0  0  0  0  0  0  0
    0.0000    0.0000    0.0000 C   0  0  0  0  0  0  0  0  0  0  0  0
    0.0000    0.0000    0.0000 N   0  0  0  0  0  0  0  0  0  0  0  0
    0.0000    0.0000    0.0000 C   0  0  0  0  0  0  0  0  0  0  0  0
    0.0000    0.0000    0.0000 C   0  0  0  0  0  0  0  0  0  0  0  0
    0.0000    0.0000    0.0000 Br  0  0  0  0  0  0  0  0  0  0  0  0
  1  2  1  0
  2  3  1  0
  2  4  1  0
  4  5  1  0
  5  6  1  0
  6  7  1  0
  7  8  1  0
  8  9  2  0
  9 10  1  0
 10 11  2  0
 11 12  1  0
 12 13  1  0
 13 14  1  0
 14 15  1  0
 15 16  2  0
 15 17  1  0
 17 18  2  0
 18 19  1  0
 19 20  1  0
 19 21  2  0
 21 22  1  0
 11 23  1  0
 23 24  2  0
 24 25  1  0
 24  8  1  0
 22 17  1  0
M  END
>  <pIC50>  (73) 
6.73

>  <ChEMBL_ID>  (73) 
CHEMBL493091

>  <document_journal>  (73) 
J. Nat. Prod.

>  <bao_endpoint>  (73) 
BAO_0000190

>  <potential_duplicate>  (73) 
False

>  <uo_units>  (73) 
UO_0000065

>  <canonical_smiles>  (73) 
CN(C)CCCOc1ccc(CCNC(=O)c2cc(Br)c[nH]2)cc1Br

>  <parent_molecule_chembl_id>  (73) 
CHEMBL493091

>  <assay_type>  (73) 
B

>  <src_id>  (73) 
1

>  <ligand_efficiency>  (73) 
{u'le': u'0.37', u'bei': u'14.23', u'sei': u'11.74', u'lle': u'2.72'}

>  <standard_flag>  (73) 
True

>  <molecule_chembl_id>  (73) 
CHEMBL493091

>  <target_organism>  (73) 
Homo sapiens

>  <standard_units>  (73) 
nM

>  <record_id>  (73) 
746685

>  <document_chembl_id>  (73) 
CHEMBL1140141

>  <bao_format>  (73) 
BAO_0000357

>  <data_validity_description>  (73) 
None

>  <activity_id>  (73) 
2370260

>  <standard_type>  (73) 
IC50

>  <target_chembl_id>  (73) 
CHEMBL1867

>  <data_validity_comment>  (73) 
None

>  <published_value>  (73) 
0.185

>  <document_year>  (73) 
2008

>  <target_pref_name>  (73) 
Alpha-2a adrenergic receptor

>  <assay_chembl_id>  (73) 
CHEMBL985484

>  <standard_relation>  (73) 
=

>  <assay_description>  (73) 
Displacement of [3H]MK912 from human cloned adrenergic alpha-2a receptor

>  <published_relation>  (73) 
=

>  <standard_value>  (73) 
185

>  <qudt_units>  (73) 
http://www.openphacts.org/units/Nanomolar

>  <target_tax_id>  (73) 
9606

>  <bao_label>  (73) 
single protein format

>  <published_units>  (73) 
uM

>  <pchembl_value>  (73) 
6.73

>  <published_type>  (73) 
IC50

>  <activity_comment>  (73) 
None

$$$$

     RDKit          

 37 40  0  0  0  0  0  0  0  0999 V2000
    0.0000    0.0000    0.0000 C   0  0  0  0  0  0  0  0  0  0  0  0
    0.0000    0.0000    0.0000 C   0  0  0  0  0  0  0  0  0  0  0  0
    0.0000    0.0000    0.0000 O   0  0  0  0  0  0  0  0  0  0  0  0
    0.0000    0.0000    0.0000 C   0  0  0  0  0  0  0  0  0  0  0  0
    0.0000    0.0000    0.0000 C   0  0  0  0  0  0  0  0  0  0  0  0
    0.0000    0.0000    0.0000 C   0  0  0  0  0  0  0  0  0  0  0  0
    0.0000    0.0000    0.0000 C   0  0  0  0  0  0  0  0  0  0  0  0
    0.0000    0.0000    0.0000 C   0  0  0  0  0  0  0  0  0  0  0  0
    0.0000    0.0000    0.0000 C   0  0  0  0  0  0  0  0  0  0  0  0
    0.0000    0.0000    0.0000 N   0  0  0  0  0  0  0  0  0  0  0  0
    0.0000    0.0000    0.0000 C   0  0  0  0  0  0  0  0  0  0  0  0
    0.0000    0.0000    0.0000 C   0  0  0  0  0  0  0  0  0  0  0  0
    0.0000    0.0000    0.0000 C   0  0  0  0  0  0  0  0  0  0  0  0
    0.0000    0.0000    0.0000 C   0  0  0  0  0  0  0  0  0  0  0  0
    0.0000    0.0000    0.0000 O   0  0  0  0  0  0  0  0  0  0  0  0
    0.0000    0.0000    0.0000 C   0  0  0  0  0  0  0  0  0  0  0  0
    0.0000    0.0000    0.0000 C   0  0  0  0  0  0  0  0  0  0  0  0
    0.0000    0.0000    0.0000 C   0  0  0  0  0  0  0  0  0  0  0  0
    0.0000    0.0000    0.0000 C   0  0  0  0  0  0  0  0  0  0  0  0
    0.0000    0.0000    0.0000 Cl  0  0  0  0  0  0  0  0  0  0  0  0
    0.0000    0.0000    0.0000 C   0  0  0  0  0  0  0  0  0  0  0  0
    0.0000    0.0000    0.0000 C   0  0  0  0  0  0  0  0  0  0  0  0
    0.0000    0.0000    0.0000 C   0  0  0  0  0  0  0  0  0  0  0  0
    0.0000    0.0000    0.0000 C   0  0  0  0  0  0  0  0  0  0  0  0
    0.0000    0.0000    0.0000 C   0  0  0  0  0  0  0  0  0  0  0  0
    0.0000    0.0000    0.0000 C   0  0  0  0  0  0  0  0  0  0  0  0
    0.0000    0.0000    0.0000 O   0  0  0  0  0  0  0  0  0  0  0  0
    0.0000    0.0000    0.0000 C   0  0  0  0  0  0  0  0  0  0  0  0
    0.0000    0.0000    0.0000 F   0  0  0  0  0  0  0  0  0  0  0  0
    0.0000    0.0000    0.0000 F   0  0  0  0  0  0  0  0  0  0  0  0
    0.0000    0.0000    0.0000 F   0  0  0  0  0  0  0  0  0  0  0  0
    0.0000    0.0000    0.0000 C   0  0  0  0  0  0  0  0  0  0  0  0
    0.0000    0.0000    0.0000 C   0  0  0  0  0  0  0  0  0  0  0  0
    0.0000    0.0000    0.0000 C   0  0  0  0  0  0  0  0  0  0  0  0
    0.0000    0.0000    0.0000 C   0  0  0  0  0  0  0  0  0  0  0  0
    0.0000    0.0000    0.0000 O   0  0  0  0  0  0  0  0  0  0  0  0
    0.0000    0.0000    0.0000 O   0  0  0  0  0  0  0  0  0  0  0  0
  1  2  1  0
  2  3  1  0
  3  4  1  0
  4  5  2  0
  5  6  1  0
  6  7  2  0
  7  8  1  0
  8  9  1  0
  9 10  1  0
 10 11  1  0
 11 12  1  0
 11 13  2  0
 13 14  1  0
 14 15  2  0
 14 16  1  0
 16 17  2  0
 17 18  1  0
 18 19  2  0
 19 20  1  0
 19 21  1  0
 21 22  2  0
 13 23  1  0
 23 24  2  0
 24 25  1  0
 25 26  2  0
 26 27  1  0
 27 28  1  0
 28 29  1  0
 28 30  1  0
 28 31  1  0
 26 32  1  0
 32 33  2  0
  8 34  2  0
  2 35  1  0
 35 36  2  0
 35 37  1  0
 34  4  1  0
 33 10  1  0
 22 16  1  0
 33 23  1  0
M  END
>  <pIC50>  (74) 
5.78

>  <ChEMBL_ID>  (74) 
CHEMBL461571

>  <document_journal>  (74) 
Bioorg. Med. Chem. Lett.

>  <bao_endpoint>  (74) 
BAO_0000190

>  <potential_duplicate>  (74) 
False

>  <uo_units>  (74) 
UO_0000065

>  <canonical_smiles>  (74) 
C[C@@H](Oc1cccc(Cn2c(C)c(C(=O)c3ccc(Cl)cc3)c4ccc(OC(F)(F)F)cc24)c1)C(=O)O

>  <parent_molecule_chembl_id>  (74) 
CHEMBL461571

>  <assay_type>  (74) 
B

>  <src_id>  (74) 
1

>  <ligand_efficiency>  (74) 
{u'le': u'0.21', u'bei': u'10.87', u'sei': u'7.44', u'lle': u'-2.42'}

>  <standard_flag>  (74) 
True

>  <molecule_chembl_id>  (74) 
CHEMBL461571

>  <target_organism>  (74) 
Homo sapiens

>  <standard_units>  (74) 
nM

>  <record_id>  (74) 
722289

>  <document_chembl_id>  (74) 
CHEMBL1139415

>  <bao_format>  (74) 
BAO_0000357

>  <data_validity_description>  (74) 
None

>  <activity_id>  (74) 
2376480

>  <standard_type>  (74) 
IC50

>  <target_chembl_id>  (74) 
CHEMBL1867

>  <data_validity_comment>  (74) 
None

>  <published_value>  (74) 
1.65

>  <document_year>  (74) 
2008

>  <target_pref_name>  (74) 
Alpha-2a adrenergic receptor

>  <assay_chembl_id>  (74) 
CHEMBL980764

>  <standard_relation>  (74) 
=

>  <assay_description>  (74) 
Displacement of radioligand from adrenergic alpha2A receptor

>  <published_relation>  (74) 
=

>  <standard_value>  (74) 
1650

>  <qudt_units>  (74) 
http://www.openphacts.org/units/Nanomolar

>  <target_tax_id>  (74) 
9606

>  <bao_label>  (74) 
single protein format

>  <published_units>  (74) 
uM

>  <pchembl_value>  (74) 
5.78

>  <published_type>  (74) 
IC50

>  <activity_comment>  (74) 
None

$$$$

     RDKit          

 34 39  0  0  0  0  0  0  0  0999 V2000
    0.0000    0.0000    0.0000 O   0  0  0  0  0  0  0  0  0  0  0  0
    0.0000    0.0000    0.0000 C   0  0  0  0  0  0  0  0  0  0  0  0
    0.0000    0.0000    0.0000 N   0  0  0  0  0  0  0  0  0  0  0  0
    0.0000    0.0000    0.0000 C   0  0  0  0  0  0  0  0  0  0  0  0
    0.0000    0.0000    0.0000 C   0  0  0  0  0  0  0  0  0  0  0  0
    0.0000    0.0000    0.0000 C   0  0  0  0  0  0  0  0  0  0  0  0
    0.0000    0.0000    0.0000 C   0  0  0  0  0  0  0  0  0  0  0  0
    0.0000    0.0000    0.0000 C   0  0  0  0  0  0  0  0  0  0  0  0
    0.0000    0.0000    0.0000 C   0  0  0  0  0  0  0  0  0  0  0  0
    0.0000    0.0000    0.0000 C   0  0  0  0  0  0  0  0  0  0  0  0
    0.0000    0.0000    0.0000 C   0  0  0  0  0  0  0  0  0  0  0  0
    0.0000    0.0000    0.0000 N   0  0  0  0  0  0  0  0  0  0  0  0
    0.0000    0.0000    0.0000 C   0  0  0  0  0  0  0  0  0  0  0  0
    0.0000    0.0000    0.0000 C   0  0  0  0  0  0  0  0  0  0  0  0
    0.0000    0.0000    0.0000 N   0  0  0  0  0  0  0  0  0  0  0  0
    0.0000    0.0000    0.0000 C   0  0  0  0  0  0  0  0  0  0  0  0
    0.0000    0.0000    0.0000 C   0  0  0  0  0  0  0  0  0  0  0  0
    0.0000    0.0000    0.0000 N   0  0  0  0  0  0  0  0  0  0  0  0
    0.0000    0.0000    0.0000 C   0  0  0  0  0  0  0  0  0  0  0  0
    0.0000    0.0000    0.0000 C   0  0  0  0  0  0  0  0  0  0  0  0
    0.0000    0.0000    0.0000 C   0  0  0  0  0  0  0  0  0  0  0  0
    0.0000    0.0000    0.0000 S   0  0  0  0  0  0  0  0  0  0  0  0
    0.0000    0.0000    0.0000 C   0  0  0  0  0  0  0  0  0  0  0  0
    0.0000    0.0000    0.0000 N   0  0  0  0  0  0  0  0  0  0  0  0
    0.0000    0.0000    0.0000 C   0  0  0  0  0  0  0  0  0  0  0  0
    0.0000    0.0000    0.0000 C   0  0  0  0  0  0  0  0  0  0  0  0
    0.0000    0.0000    0.0000 N   0  0  0  0  0  0  0  0  0  0  0  0
    0.0000    0.0000    0.0000 C   0  0  0  0  0  0  0  0  0  0  0  0
    0.0000    0.0000    0.0000 C   0  0  0  0  0  0  0  0  0  0  0  0
    0.0000    0.0000    0.0000 C   0  0  0  0  0  0  0  0  0  0  0  0
    0.0000    0.0000    0.0000 C   0  0  0  0  0  0  0  0  0  0  0  0
    0.0000    0.0000    0.0000 C   0  0  0  0  0  0  0  0  0  0  0  0
    0.0000    0.0000    0.0000 C   0  0  0  0  0  0  0  0  0  0  0  0
    0.0000    0.0000    0.0000 N   0  0  0  0  0  0  0  0  0  0  0  0
  1  2  2  0
  2  3  1  0
  3  4  1  0
  4  5  2  0
  5  6  1  0
  6  7  2  0
  7  8  1  0
  8  9  2  0
  9 10  1  0
 10 11  2  0
 11 12  1  0
 12 13  1  0
 13 14  1  0
 14 15  1  0
 15 16  1  0
 16 17  1  0
 17 18  1  0
 18 19  1  0
 19 20  1  0
 13 21  2  0
 21 22  1  0
 22 23  1  0
 23 24  2  0
  2 25  1  0
 25 26  2  0
 26 27  1  0
 27 28  2  0
 28 29  1  0
 29 30  2  0
 30 31  1  0
 31 32  2  0
 32 33  1  0
 33 34  2  0
  9  4  1  0
 24 10  1  0
 23 12  1  0
 20 15  1  0
 34 25  1  0
 33 28  1  0
M  END
>  <pIC50>  (75) 
5.55

>  <ChEMBL_ID>  (75) 
CHEMBL257991

>  <document_journal>  (75) 
J. Med. Chem.

>  <bao_endpoint>  (75) 
BAO_0000190

>  <potential_duplicate>  (75) 
False

>  <uo_units>  (75) 
UO_0000065

>  <canonical_smiles>  (75) 
O=C(Nc1ccccc1c2cn3c(CN4CCNCC4)csc3n2)c5cnc6ccccc6n5

>  <parent_molecule_chembl_id>  (75) 
CHEMBL257991

>  <assay_type>  (75) 
B

>  <src_id>  (75) 
1

>  <ligand_efficiency>  (75) 
{u'le': u'0.22', u'bei': u'11.82', u'sei': u'4.8', u'lle': u'2.91'}

>  <standard_flag>  (75) 
True

>  <molecule_chembl_id>  (75) 
CHEMBL257991

>  <target_organism>  (75) 
Homo sapiens

>  <standard_units>  (75) 
nM

>  <record_id>  (75) 
728879

>  <document_chembl_id>  (75) 
CHEMBL1140923

>  <bao_format>  (75) 
BAO_0000357

>  <data_validity_description>  (75) 
None

>  <activity_id>  (75) 
2396365

>  <standard_type>  (75) 
IC50

>  <target_chembl_id>  (75) 
CHEMBL1867

>  <data_validity_comment>  (75) 
None

>  <published_value>  (75) 
2.83

>  <document_year>  (75) 
2009

>  <target_pref_name>  (75) 
Alpha-2a adrenergic receptor

>  <assay_chembl_id>  (75) 
CHEMBL1007882

>  <standard_relation>  (75) 
=

>  <assay_description>  (75) 
Inhibition of adrenergic alpha2A receptor

>  <published_relation>  (75) 
=

>  <standard_value>  (75) 
2830

>  <qudt_units>  (75) 
http://www.openphacts.org/units/Nanomolar

>  <target_tax_id>  (75) 
9606

>  <bao_label>  (75) 
single protein format

>  <published_units>  (75) 
uM

>  <pchembl_value>  (75) 
5.55

>  <published_type>  (75) 
IC50

>  <activity_comment>  (75) 
None

$$$$

     RDKit          

 24 27  0  0  0  0  0  0  0  0999 V2000
    0.0000    0.0000    0.0000 C   0  0  0  0  0  0  0  0  0  0  0  0
    0.0000    0.0000    0.0000 C   0  0  0  0  0  0  0  0  0  0  0  0
    0.0000    0.0000    0.0000 C   0  0  0  0  0  0  0  0  0  0  0  0
    0.0000    0.0000    0.0000 N   0  0  0  0  0  0  0  0  0  0  0  0
    0.0000    0.0000    0.0000 C   0  0  0  0  0  0  0  0  0  0  0  0
    0.0000    0.0000    0.0000 C   0  0  0  0  0  0  0  0  0  0  0  0
    0.0000    0.0000    0.0000 C   0  0  0  0  0  0  0  0  0  0  0  0
    0.0000    0.0000    0.0000 C   0  0  0  0  0  0  0  0  0  0  0  0
    0.0000    0.0000    0.0000 O   0  0  0  0  0  0  0  0  0  0  0  0
    0.0000    0.0000    0.0000 C   0  0  0  0  0  0  0  0  0  0  0  0
    0.0000    0.0000    0.0000 N   0  0  0  0  0  0  0  0  0  0  0  0
    0.0000    0.0000    0.0000 C   0  0  0  0  0  0  0  0  0  0  0  0
    0.0000    0.0000    0.0000 S   0  0  0  0  0  0  0  0  0  0  0  0
    0.0000    0.0000    0.0000 C   0  0  0  0  0  0  0  0  0  0  0  0
    0.0000    0.0000    0.0000 C   0  0  0  0  0  0  0  0  0  0  0  0
    0.0000    0.0000    0.0000 C   0  0  0  0  0  0  0  0  0  0  0  0
    0.0000    0.0000    0.0000 C   0  0  0  0  0  0  0  0  0  0  0  0
    0.0000    0.0000    0.0000 N   0  0  0  0  0  0  0  0  0  0  0  0
    0.0000    0.0000    0.0000 C   0  0  0  0  0  0  0  0  0  0  0  0
    0.0000    0.0000    0.0000 C   0  0  0  0  0  0  0  0  0  0  0  0
    0.0000    0.0000    0.0000 C   0  0  0  0  0  0  0  0  0  0  0  0
    0.0000    0.0000    0.0000 C   0  0  0  0  0  0  0  0  0  0  0  0
    0.0000    0.0000    0.0000 C   0  0  0  0  0  0  0  0  0  0  0  0
    0.0000    0.0000    0.0000 C   0  0  0  0  0  0  0  0  0  0  0  0
  1  2  1  0
  2  3  1  0
  3  4  1  0
  4  5  1  0
  5  6  1  0
  6  7  1  0
  7  8  1  0
  8  9  1  0
  9 10  1  0
 10 11  2  0
 11 12  1  0
 12 13  1  0
 13 14  1  0
 14 15  2  0
 15 16  1  0
 15 17  1  0
 17 18  1  0
 18 19  1  0
 19 20  2  0
 20 21  1  0
 21 22  2  0
  7 23  1  0
 23 24  1  0
 24  4  1  0
 22 10  1  0
 17 12  2  0
 22 18  1  0
M  END
>  <pIC50>  (76) 
6.05

>  <ChEMBL_ID>  (76) 
CHEMBL470432

>  <document_journal>  (76) 
Bioorg. Med. Chem.

>  <bao_endpoint>  (76) 
BAO_0000190

>  <potential_duplicate>  (76) 
False

>  <uo_units>  (76) 
UO_0000065

>  <canonical_smiles>  (76) 
CCCN1CCC(COc2nc3scc(C)c3n4cccc24)CC1

>  <parent_molecule_chembl_id>  (76) 
CHEMBL470432

>  <assay_type>  (76) 
B

>  <src_id>  (76) 
1

>  <ligand_efficiency>  (76) 
{u'le': u'0.34', u'bei': u'17.61', u'sei': u'10.43', u'lle': u'1.62'}

>  <standard_flag>  (76) 
True

>  <molecule_chembl_id>  (76) 
CHEMBL470432

>  <target_organism>  (76) 
Homo sapiens

>  <standard_units>  (76) 
nM

>  <record_id>  (76) 
810377

>  <document_chembl_id>  (76) 
CHEMBL1153939

>  <bao_format>  (76) 
BAO_0000357

>  <data_validity_description>  (76) 
None

>  <activity_id>  (76) 
2410485

>  <standard_type>  (76) 
IC50

>  <target_chembl_id>  (76) 
CHEMBL1867

>  <data_validity_comment>  (76) 
None

>  <published_value>  (76) 
6.05

>  <document_year>  (76) 
2009

>  <target_pref_name>  (76) 
Alpha-2a adrenergic receptor

>  <assay_chembl_id>  (76) 
CHEMBL964030

>  <standard_relation>  (76) 
=

>  <assay_description>  (76) 
Displacement of [3H]RX821002 form human recombinant alpha2A adrenergic receptor

>  <published_relation>  (76) 
=

>  <standard_value>  (76) 
891.25

>  <qudt_units>  (76) 
http://www.openphacts.org/units/Nanomolar

>  <target_tax_id>  (76) 
9606

>  <bao_label>  (76) 
single protein format

>  <published_units>  (76) 
None

>  <pchembl_value>  (76) 
6.05

>  <published_type>  (76) 
pIC50

>  <activity_comment>  (76) 
None

$$$$

     RDKit          

 29 32  0  0  0  0  0  0  0  0999 V2000
    0.0000    0.0000    0.0000 C   0  0  0  0  0  0  0  0  0  0  0  0
    0.0000    0.0000    0.0000 N   0  0  0  0  0  0  0  0  0  0  0  0
    0.0000    0.0000    0.0000 C   0  0  0  0  0  0  0  0  0  0  0  0
    0.0000    0.0000    0.0000 C   0  0  0  0  0  0  0  0  0  0  0  0
    0.0000    0.0000    0.0000 C   0  0  0  0  0  0  0  0  0  0  0  0
    0.0000    0.0000    0.0000 C   0  0  0  0  0  0  0  0  0  0  0  0
    0.0000    0.0000    0.0000 C   0  0  0  0  0  0  0  0  0  0  0  0
    0.0000    0.0000    0.0000 C   0  0  0  0  0  0  0  0  0  0  0  0
    0.0000    0.0000    0.0000 C   0  0  0  0  0  0  0  0  0  0  0  0
    0.0000    0.0000    0.0000 C   0  0  0  0  0  0  0  0  0  0  0  0
    0.0000    0.0000    0.0000 C   0  0  0  0  0  0  0  0  0  0  0  0
    0.0000    0.0000    0.0000 C   0  0  0  0  0  0  0  0  0  0  0  0
    0.0000    0.0000    0.0000 C   0  0  0  0  0  0  0  0  0  0  0  0
    0.0000    0.0000    0.0000 C   0  0  0  0  0  0  0  0  0  0  0  0
    0.0000    0.0000    0.0000 C   0  0  0  0  0  0  0  0  0  0  0  0
    0.0000    0.0000    0.0000 S   0  0  0  0  0  0  0  0  0  0  0  0
    0.0000    0.0000    0.0000 O   0  0  0  0  0  0  0  0  0  0  0  0
    0.0000    0.0000    0.0000 O   0  0  0  0  0  0  0  0  0  0  0  0
    0.0000    0.0000    0.0000 N   0  0  0  0  0  0  0  0  0  0  0  0
    0.0000    0.0000    0.0000 C   0  0  0  0  0  0  0  0  0  0  0  0
    0.0000    0.0000    0.0000 C   0  0  0  0  0  0  0  0  0  0  0  0
    0.0000    0.0000    0.0000 C   0  0  0  0  0  0  0  0  0  0  0  0
    0.0000    0.0000    0.0000 C   0  0  0  0  0  0  0  0  0  0  0  0
    0.0000    0.0000    0.0000 C   0  0  0  0  0  0  0  0  0  0  0  0
    0.0000    0.0000    0.0000 C   0  0  0  0  0  0  0  0  0  0  0  0
    0.0000    0.0000    0.0000 C   0  0  0  0  0  0  0  0  0  0  0  0
    0.0000    0.0000    0.0000 C   0  0  0  0  0  0  0  0  0  0  0  0
    0.0000    0.0000    0.0000 C   0  0  0  0  0  0  0  0  0  0  0  0
    0.0000    0.0000    0.0000 C   0  0  0  0  0  0  0  0  0  0  0  0
  1  2  1  0
  2  3  1  0
  2  4  1  0
  4  5  1  0
  5  6  1  0
  6  7  2  0
  7  8  1  0
  7  9  1  0
  9 10  1  0
 10 11  2  0
 11 12  1  0
 12 13  2  0
 13 14  1  0
 14 15  2  0
 13 16  1  0
 16 17  2  0
 16 18  2  0
 16 19  1  0
 19 20  1  0
 20 21  2  0
 21 22  1  0
 22 23  2  0
 23 24  1  0
 24 25  2  0
 25 26  1  0
 26 27  2  0
 27 28  1  0
 28 29  2  0
 15  6  1  0
 15 10  1  0
 29 20  1  0
 29 24  1  0
M  END
>  <pIC50>  (77) 
5.96

>  <ChEMBL_ID>  (77) 
CHEMBL475969

>  <document_journal>  (77) 
J. Med. Chem.

>  <bao_endpoint>  (77) 
BAO_0000190

>  <potential_duplicate>  (77) 
False

>  <uo_units>  (77) 
UO_0000065

>  <canonical_smiles>  (77) 
CN(C)CCC1=C(C)Cc2ccc(cc12)S(=O)(=O)Nc3cccc4ccccc34

>  <parent_molecule_chembl_id>  (77) 
CHEMBL475969

>  <assay_type>  (77) 
B

>  <src_id>  (77) 
1

>  <ligand_efficiency>  (77) 
{u'le': u'0.28', u'bei': u'14.66', u'sei': u'10.31', u'lle': u'1.32'}

>  <standard_flag>  (77) 
True

>  <molecule_chembl_id>  (77) 
CHEMBL475969

>  <target_organism>  (77) 
Homo sapiens

>  <standard_units>  (77) 
nM

>  <record_id>  (77) 
780015

>  <document_chembl_id>  (77) 
CHEMBL1143393

>  <bao_format>  (77) 
BAO_0000357

>  <data_validity_description>  (77) 
None

>  <activity_id>  (77) 
2495804

>  <standard_type>  (77) 
IC50

>  <target_chembl_id>  (77) 
CHEMBL1867

>  <data_validity_comment>  (77) 
None

>  <published_value>  (77) 
1097

>  <document_year>  (77) 
2009

>  <target_pref_name>  (77) 
Alpha-2a adrenergic receptor

>  <assay_chembl_id>  (77) 
CHEMBL989588

>  <standard_relation>  (77) 
=

>  <assay_description>  (77) 
Inhibition of human adrenergic alpha2A receptor

>  <published_relation>  (77) 
=

>  <standard_value>  (77) 
1097

>  <qudt_units>  (77) 
http://www.openphacts.org/units/Nanomolar

>  <target_tax_id>  (77) 
9606

>  <bao_label>  (77) 
single protein format

>  <published_units>  (77) 
nM

>  <pchembl_value>  (77) 
5.96

>  <published_type>  (77) 
IC50

>  <activity_comment>  (77) 
None

$$$$

     RDKit          

 28 31  0  0  0  0  0  0  0  0999 V2000
    0.0000    0.0000    0.0000 C   0  0  0  0  0  0  0  0  0  0  0  0
    0.0000    0.0000    0.0000 N   0  0  0  0  0  0  0  0  0  0  0  0
    0.0000    0.0000    0.0000 C   0  0  0  0  0  0  0  0  0  0  0  0
    0.0000    0.0000    0.0000 C   0  0  0  0  0  0  0  0  0  0  0  0
    0.0000    0.0000    0.0000 C   0  0  0  0  0  0  0  0  0  0  0  0
    0.0000    0.0000    0.0000 C   0  0  0  0  0  0  0  0  0  0  0  0
    0.0000    0.0000    0.0000 C   0  0  0  0  0  0  0  0  0  0  0  0
    0.0000    0.0000    0.0000 C   0  0  0  0  0  0  0  0  0  0  0  0
    0.0000    0.0000    0.0000 C   0  0  0  0  0  0  0  0  0  0  0  0
    0.0000    0.0000    0.0000 C   0  0  0  0  0  0  0  0  0  0  0  0
    0.0000    0.0000    0.0000 C   0  0  0  0  0  0  0  0  0  0  0  0
    0.0000    0.0000    0.0000 C   0  0  0  0  0  0  0  0  0  0  0  0
    0.0000    0.0000    0.0000 C   0  0  0  0  0  0  0  0  0  0  0  0
    0.0000    0.0000    0.0000 N   0  0  0  0  0  0  0  0  0  0  0  0
    0.0000    0.0000    0.0000 S   0  0  0  0  0  0  0  0  0  0  0  0
    0.0000    0.0000    0.0000 O   0  0  0  0  0  0  0  0  0  0  0  0
    0.0000    0.0000    0.0000 O   0  0  0  0  0  0  0  0  0  0  0  0
    0.0000    0.0000    0.0000 C   0  0  0  0  0  0  0  0  0  0  0  0
    0.0000    0.0000    0.0000 C   0  0  0  0  0  0  0  0  0  0  0  0
    0.0000    0.0000    0.0000 S   0  0  0  0  0  0  0  0  0  0  0  0
    0.0000    0.0000    0.0000 C   0  0  0  0  0  0  0  0  0  0  0  0
    0.0000    0.0000    0.0000 C   0  0  0  0  0  0  0  0  0  0  0  0
    0.0000    0.0000    0.0000 C   0  0  0  0  0  0  0  0  0  0  0  0
    0.0000    0.0000    0.0000 C   0  0  0  0  0  0  0  0  0  0  0  0
    0.0000    0.0000    0.0000 C   0  0  0  0  0  0  0  0  0  0  0  0
    0.0000    0.0000    0.0000 C   0  0  0  0  0  0  0  0  0  0  0  0
    0.0000    0.0000    0.0000 C   0  0  0  0  0  0  0  0  0  0  0  0
    0.0000    0.0000    0.0000 C   0  0  0  0  0  0  0  0  0  0  0  0
  1  2  1  0
  2  3  1  0
  2  4  1  0
  4  5  1  0
  5  6  1  0
  6  7  2  0
  7  8  1  0
  7  9  1  0
  9 10  1  0
 10 11  2  0
 11 12  1  0
 12 13  2  0
 13 14  1  0
 14 15  1  0
 15 16  2  0
 15 17  2  0
 15 18  1  0
 18 19  2  0
 19 20  1  0
 20 21  1  0
 21 22  2  0
 22 23  1  0
 23 24  2  0
 24 25  1  0
 25 26  2  0
 13 27  1  0
 27 28  2  0
 28  6  1  0
 28 10  1  0
 26 18  1  0
 26 21  1  0
M  END
>  <pIC50>  (78) 
6.16

>  <ChEMBL_ID>  (78) 
CHEMBL477650

>  <document_journal>  (78) 
J. Med. Chem.

>  <bao_endpoint>  (78) 
BAO_0000190

>  <potential_duplicate>  (78) 
False

>  <uo_units>  (78) 
UO_0000065

>  <canonical_smiles>  (78) 
CN(C)CCC1=C(C)Cc2ccc(NS(=O)(=O)c3csc4ccccc34)cc12

>  <parent_molecule_chembl_id>  (78) 
CHEMBL477650

>  <assay_type>  (78) 
B

>  <src_id>  (78) 
1

>  <ligand_efficiency>  (78) 
{u'le': u'0.3', u'bei': u'14.92', u'sei': u'7.15', u'lle': u'1.56'}

>  <standard_flag>  (78) 
True

>  <molecule_chembl_id>  (78) 
CHEMBL477650

>  <target_organism>  (78) 
Homo sapiens

>  <standard_units>  (78) 
nM

>  <record_id>  (78) 
779778

>  <document_chembl_id>  (78) 
CHEMBL1143393

>  <bao_format>  (78) 
BAO_0000357

>  <data_validity_description>  (78) 
None

>  <activity_id>  (78) 
2495807

>  <standard_type>  (78) 
IC50

>  <target_chembl_id>  (78) 
CHEMBL1867

>  <data_validity_comment>  (78) 
None

>  <published_value>  (78) 
700

>  <document_year>  (78) 
2009

>  <target_pref_name>  (78) 
Alpha-2a adrenergic receptor

>  <assay_chembl_id>  (78) 
CHEMBL989588

>  <standard_relation>  (78) 
=

>  <assay_description>  (78) 
Inhibition of human adrenergic alpha2A receptor

>  <published_relation>  (78) 
=

>  <standard_value>  (78) 
700

>  <qudt_units>  (78) 
http://www.openphacts.org/units/Nanomolar

>  <target_tax_id>  (78) 
9606

>  <bao_label>  (78) 
single protein format

>  <published_units>  (78) 
nM

>  <pchembl_value>  (78) 
6.16

>  <published_type>  (78) 
IC50

>  <activity_comment>  (78) 
None

$$$$

     RDKit          

 27 29  0  0  0  0  0  0  0  0999 V2000
    0.0000    0.0000    0.0000 C   0  0  0  0  0  0  0  0  0  0  0  0
    0.0000    0.0000    0.0000 C   0  0  0  0  0  0  0  0  0  0  0  0
    0.0000    0.0000    0.0000 N   0  0  0  0  0  0  0  0  0  0  0  0
    0.0000    0.0000    0.0000 N   0  0  0  0  0  0  0  0  0  0  0  0
    0.0000    0.0000    0.0000 C   0  0  0  0  0  0  0  0  0  0  0  0
    0.0000    0.0000    0.0000 C   0  0  0  0  0  0  0  0  0  0  0  0
    0.0000    0.0000    0.0000 C   0  0  0  0  0  0  0  0  0  0  0  0
    0.0000    0.0000    0.0000 N   0  0  0  0  0  0  0  0  0  0  0  0
    0.0000    0.0000    0.0000 C   0  0  0  0  0  0  0  0  0  0  0  0
    0.0000    0.0000    0.0000 C   0  0  0  0  0  0  0  0  0  0  0  0
    0.0000    0.0000    0.0000 N   0  0  0  0  0  0  0  0  0  0  0  0
    0.0000    0.0000    0.0000 C   0  0  0  0  0  0  0  0  0  0  0  0
    0.0000    0.0000    0.0000 C   0  0  0  0  0  0  0  0  0  0  0  0
    0.0000    0.0000    0.0000 C   0  0  0  0  0  0  0  0  0  0  0  0
    0.0000    0.0000    0.0000 C   0  0  0  0  0  0  0  0  0  0  0  0
    0.0000    0.0000    0.0000 C   0  0  0  0  0  0  0  0  0  0  0  0
    0.0000    0.0000    0.0000 C   0  0  0  0  0  0  0  0  0  0  0  0
    0.0000    0.0000    0.0000 C   0  0  0  0  0  0  0  0  0  0  0  0
    0.0000    0.0000    0.0000 C   0  0  0  0  0  0  0  0  0  0  0  0
    0.0000    0.0000    0.0000 C   0  0  0  0  0  0  0  0  0  0  0  0
    0.0000    0.0000    0.0000 C   0  0  0  0  0  0  0  0  0  0  0  0
    0.0000    0.0000    0.0000 O   0  0  0  0  0  0  0  0  0  0  0  0
    0.0000    0.0000    0.0000 C   0  0  0  0  0  0  0  0  0  0  0  0
    0.0000    0.0000    0.0000 C   0  0  0  0  0  0  0  0  0  0  0  0
    0.0000    0.0000    0.0000 C   0  0  0  0  0  0  0  0  0  0  0  0
    0.0000    0.0000    0.0000 C   0  0  0  0  0  0  0  0  0  0  0  0
    0.0000    0.0000    0.0000 N   0  0  0  0  0  0  0  0  0  0  0  0
  1  2  1  0
  2  3  2  0
  3  4  1  0
  4  5  1  0
  5  6  1  0
  6  7  1  0
  7  8  1  0
  8  9  1  0
  9 10  1  0
 10 11  1  0
 11 12  1  0
 12 13  1  0
 11 14  1  0
 14 15  2  0
 15 16  1  0
 16 17  2  0
 17 18  1  0
 17 19  1  0
 19 20  2  0
  4 21  1  0
 21 22  2  0
 21 23  1  0
 23 24  2  0
 24 25  1  0
 25 26  2  0
 23 27  1  0
 24  2  1  0
 13  8  1  0
 20 14  1  0
M  END
>  <pIC50>  (79) 
6.5

>  <ChEMBL_ID>  (79) 
CHEMBL584606

>  <document_journal>  (79) 
J. Med. Chem.

>  <bao_endpoint>  (79) 
BAO_0000190

>  <potential_duplicate>  (79) 
False

>  <uo_units>  (79) 
UO_0000065

>  <canonical_smiles>  (79) 
CC1=NN(CCCN2CCN(CC2)c3ccc(C)cc3)C(=O)C(=C1C=C)N

>  <parent_molecule_chembl_id>  (79) 
CHEMBL584606

>  <assay_type>  (79) 
B

>  <src_id>  (79) 
1

>  <ligand_efficiency>  (79) 
{u'le': u'0.33', u'bei': u'17.67', u'sei': u'9.97', u'lle': u'4.88'}

>  <standard_flag>  (79) 
True

>  <molecule_chembl_id>  (79) 
CHEMBL584606

>  <target_organism>  (79) 
Homo sapiens

>  <standard_units>  (79) 
nM

>  <record_id>  (79) 
848798

>  <document_chembl_id>  (79) 
CHEMBL1154181

>  <bao_format>  (79) 
BAO_0000219

>  <data_validity_description>  (79) 
None

>  <activity_id>  (79) 
2926070

>  <standard_type>  (79) 
IC50

>  <target_chembl_id>  (79) 
CHEMBL1867

>  <data_validity_comment>  (79) 
None

>  <published_value>  (79) 
320

>  <document_year>  (79) 
2009

>  <target_pref_name>  (79) 
Alpha-2a adrenergic receptor

>  <assay_chembl_id>  (79) 
CHEMBL1046745

>  <standard_relation>  (79) 
=

>  <assay_description>  (79) 
Displacement of [3H]MK9112 from human recombinant adrenergic alpha2A receptor expressed in insect Sf9 cells after 60 mins

>  <published_relation>  (79) 
=

>  <standard_value>  (79) 
320

>  <qudt_units>  (79) 
http://www.openphacts.org/units/Nanomolar

>  <target_tax_id>  (79) 
9606

>  <bao_label>  (79) 
cell-based format

>  <published_units>  (79) 
nM

>  <pchembl_value>  (79) 
6.5

>  <published_type>  (79) 
IC50

>  <activity_comment>  (79) 
None

$$$$

     RDKit          

 26 30  0  0  0  0  0  0  0  0999 V2000
    0.0000    0.0000    0.0000 C   0  0  0  0  0  0  0  0  0  0  0  0
    0.0000    0.0000    0.0000 O   0  0  0  0  0  0  0  0  0  0  0  0
    0.0000    0.0000    0.0000 C   0  0  0  0  0  0  0  0  0  0  0  0
    0.0000    0.0000    0.0000 O   0  0  0  0  0  0  0  0  0  0  0  0
    0.0000    0.0000    0.0000 C   0  0  0  0  0  0  0  0  0  0  0  0
    0.0000    0.0000    0.0000 C   0  0  0  0  0  0  0  0  0  0  0  0
    0.0000    0.0000    0.0000 O   0  0  0  0  0  0  0  0  0  0  0  0
    0.0000    0.0000    0.0000 C   0  0  0  0  0  0  0  0  0  0  0  0
    0.0000    0.0000    0.0000 C   0  0  0  0  0  0  0  0  0  0  0  0
    0.0000    0.0000    0.0000 C   0  0  0  0  0  0  0  0  0  0  0  0
    0.0000    0.0000    0.0000 C   0  0  0  0  0  0  0  0  0  0  0  0
    0.0000    0.0000    0.0000 N   0  0  0  0  0  0  0  0  0  0  0  0
    0.0000    0.0000    0.0000 C   0  0  0  0  0  0  0  0  0  0  0  0
    0.0000    0.0000    0.0000 C   0  0  0  0  0  0  0  0  0  0  0  0
    0.0000    0.0000    0.0000 C   0  0  0  0  0  0  0  0  0  0  0  0
    0.0000    0.0000    0.0000 C   0  0  0  0  0  0  0  0  0  0  0  0
    0.0000    0.0000    0.0000 N   0  0  0  0  0  0  0  0  0  0  0  0
    0.0000    0.0000    0.0000 C   0  0  0  0  0  0  0  0  0  0  0  0
    0.0000    0.0000    0.0000 C   0  0  0  0  0  0  0  0  0  0  0  0
    0.0000    0.0000    0.0000 C   0  0  0  0  0  0  0  0  0  0  0  0
    0.0000    0.0000    0.0000 C   0  0  0  0  0  0  0  0  0  0  0  0
    0.0000    0.0000    0.0000 C   0  0  0  0  0  0  0  0  0  0  0  0
    0.0000    0.0000    0.0000 C   0  0  0  0  0  0  0  0  0  0  0  0
    0.0000    0.0000    0.0000 C   0  0  0  0  0  0  0  0  0  0  0  0
    0.0000    0.0000    0.0000 C   0  0  0  0  0  0  0  0  0  0  0  0
    0.0000    0.0000    0.0000 C   0  0  0  0  0  0  0  0  0  0  0  0
  1  2  1  0
  2  3  1  0
  3  4  2  0
  3  5  1  0
  5  6  1  0
  6  7  1  0
  6  8  1  0
  8  9  1  0
  9 10  1  0
 10 11  1  0
 11 12  1  0
 12 13  1  0
 13 14  1  0
 14 15  1  0
 15 16  2  0
 16 17  1  0
 17 18  1  0
 18 19  2  0
 19 20  1  0
 20 21  2  0
 21 22  1  0
 22 23  2  0
 16 24  1  0
 24 25  1  0
 25 26  1  0
 26  5  1  0
 26 10  1  0
 24 12  1  0
 23 15  1  0
 23 18  1  0
M  END
>  <pIC50>  (80) 
8.44

>  <ChEMBL_ID>  (80) 
CHEMBL537669

>  <document_journal>  (80) 
J. Med. Chem.

>  <bao_endpoint>  (80) 
BAO_0000190

>  <potential_duplicate>  (80) 
False

>  <uo_units>  (80) 
UO_0000065

>  <canonical_smiles>  (80) 
Cl.COC(=O)[C@H]1[C@@H](O)CC[C@H]2CN3CCc4c([nH]c5ccccc45)[C@@H]3C[C@H]12

>  <parent_molecule_chembl_id>  (80) 
CHEMBL15245

>  <assay_type>  (80) 
B

>  <src_id>  (80) 
1

>  <ligand_efficiency>  (80) 
{u'le': u'0.44', u'bei': u'23.8', u'sei': u'12.87', u'lle': u'5.62'}

>  <standard_flag>  (80) 
True

>  <molecule_chembl_id>  (80) 
CHEMBL537669

>  <target_organism>  (80) 
Homo sapiens

>  <standard_units>  (80) 
nM

>  <record_id>  (80) 
850253

>  <document_chembl_id>  (80) 
CHEMBL1154181

>  <bao_format>  (80) 
BAO_0000219

>  <data_validity_description>  (80) 
None

>  <activity_id>  (80) 
2926081

>  <standard_type>  (80) 
IC50

>  <target_chembl_id>  (80) 
CHEMBL1867

>  <data_validity_comment>  (80) 
None

>  <published_value>  (80) 
3.67

>  <document_year>  (80) 
2009

>  <target_pref_name>  (80) 
Alpha-2a adrenergic receptor

>  <assay_chembl_id>  (80) 
CHEMBL1046745

>  <standard_relation>  (80) 
=

>  <assay_description>  (80) 
Displacement of [3H]MK9112 from human recombinant adrenergic alpha2A receptor expressed in insect Sf9 cells after 60 mins

>  <published_relation>  (80) 
=

>  <standard_value>  (80) 
3.67

>  <qudt_units>  (80) 
http://www.openphacts.org/units/Nanomolar

>  <target_tax_id>  (80) 
9606

>  <bao_label>  (80) 
cell-based format

>  <published_units>  (80) 
nM

>  <pchembl_value>  (80) 
8.44

>  <published_type>  (80) 
IC50

>  <activity_comment>  (80) 
None

$$$$

     RDKit          

 32 36  0  0  0  0  0  0  0  0999 V2000
    0.0000    0.0000    0.0000 C   0  0  0  0  0  0  0  0  0  0  0  0
    0.0000    0.0000    0.0000 C   0  0  0  0  0  0  0  0  0  0  0  0
    0.0000    0.0000    0.0000 N   0  0  0  0  0  0  0  0  0  0  0  0
    0.0000    0.0000    0.0000 C   0  0  0  0  0  0  0  0  0  0  0  0
    0.0000    0.0000    0.0000 C   0  0  0  0  0  0  0  0  0  0  0  0
    0.0000    0.0000    0.0000 C   0  0  0  0  0  0  0  0  0  0  0  0
    0.0000    0.0000    0.0000 O   0  0  0  0  0  0  0  0  0  0  0  0
    0.0000    0.0000    0.0000 C   0  0  0  0  0  0  0  0  0  0  0  0
    0.0000    0.0000    0.0000 C   0  0  0  0  0  0  0  0  0  0  0  0
    0.0000    0.0000    0.0000 N   0  0  0  0  0  0  0  0  0  0  0  0
    0.0000    0.0000    0.0000 C   0  0  0  0  0  0  0  0  0  0  0  0
    0.0000    0.0000    0.0000 C   0  0  0  0  0  0  0  0  0  0  0  0
    0.0000    0.0000    0.0000 C   0  0  0  0  0  0  0  0  0  0  0  0
    0.0000    0.0000    0.0000 C   0  0  0  0  0  0  0  0  0  0  0  0
    0.0000    0.0000    0.0000 N   0  0  0  0  0  0  0  0  0  0  0  0
    0.0000    0.0000    0.0000 C   0  0  0  0  0  0  0  0  0  0  0  0
    0.0000    0.0000    0.0000 C   0  0  0  0  0  0  0  0  0  0  0  0
    0.0000    0.0000    0.0000 C   0  0  0  0  0  0  0  0  0  0  0  0
    0.0000    0.0000    0.0000 C   0  0  0  0  0  0  0  0  0  0  0  0
    0.0000    0.0000    0.0000 C   0  0  0  0  0  0  0  0  0  0  0  0
    0.0000    0.0000    0.0000 C   0  0  0  0  0  0  0  0  0  0  0  0
    0.0000    0.0000    0.0000 C   0  0  0  0  0  0  0  0  0  0  0  0
    0.0000    0.0000    0.0000 C   0  0  0  0  0  0  0  0  0  0  0  0
    0.0000    0.0000    0.0000 C   0  0  0  0  0  0  0  0  0  0  0  0
    0.0000    0.0000    0.0000 O   0  0  0  0  0  0  0  0  0  0  0  0
    0.0000    0.0000    0.0000 N   0  0  0  0  0  0  0  0  0  0  0  0
    0.0000    0.0000    0.0000 C   0  0  0  0  0  0  0  0  0  0  0  0
    0.0000    0.0000    0.0000 C   0  0  0  0  0  0  0  0  0  0  0  0
    0.0000    0.0000    0.0000 C   0  0  0  0  0  0  0  0  0  0  0  0
    0.0000    0.0000    0.0000 C   0  0  0  0  0  0  0  0  0  0  0  0
    0.0000    0.0000    0.0000 C   0  0  0  0  0  0  0  0  0  0  0  0
    0.0000    0.0000    0.0000 C   0  0  0  0  0  0  0  0  0  0  0  0
  1  2  1  0
  2  3  1  0
  3  4  1  0
  4  5  1  0
  3  6  1  0
  6  7  2  0
  6  8  1  0
  8  9  1  0
  9 10  1  0
 10 11  1  0
 11 12  1  0
 12 13  1  0
 13 14  2  0
 14 15  1  0
 15 16  1  0
 16 17  2  0
 17 18  1  0
 18 19  2  0
 19 20  1  0
 20 21  1  0
 21 22  2  0
 20 23  2  0
 10 24  1  0
 24 25  2  0
 24 26  1  0
 26 27  1  0
 27 28  2  0
 28 29  1  0
 29 30  2  0
 30 31  1  0
 31 32  2  0
 22  8  1  0
 21 11  1  0
 23 13  1  0
 23 16  1  0
 32 27  1  0
M  END
>  <pIC50>  (81) 
5.71

>  <ChEMBL_ID>  (81) 
CHEMBL584554

>  <document_journal>  (81) 
Bioorg. Med. Chem. Lett.

>  <bao_endpoint>  (81) 
BAO_0000190

>  <potential_duplicate>  (81) 
False

>  <uo_units>  (81) 
UO_0000065

>  <canonical_smiles>  (81) 
CCN(CC)C(=O)[C@H]1CN([C@@H]2Cc3c[nH]c4cccc(C2=C1)c34)C(=O)Nc5ccccc5

>  <parent_molecule_chembl_id>  (81) 
CHEMBL584554

>  <assay_type>  (81) 
B

>  <src_id>  (81) 
1

>  <ligand_efficiency>  (81) 
{u'le': u'0.24', u'bei': u'13.33', u'sei': u'8.35', u'lle': u'2.27'}

>  <standard_flag>  (81) 
True

>  <molecule_chembl_id>  (81) 
CHEMBL584554

>  <target_organism>  (81) 
Homo sapiens

>  <standard_units>  (81) 
nM

>  <record_id>  (81) 
848803

>  <document_chembl_id>  (81) 
CHEMBL1154177

>  <bao_format>  (81) 
BAO_0000357

>  <data_validity_description>  (81) 
None

>  <activity_id>  (81) 
2927558

>  <standard_type>  (81) 
IC50

>  <target_chembl_id>  (81) 
CHEMBL1867

>  <data_validity_comment>  (81) 
None

>  <published_value>  (81) 
1930

>  <document_year>  (81) 
2009

>  <target_pref_name>  (81) 
Alpha-2a adrenergic receptor

>  <assay_chembl_id>  (81) 
CHEMBL1048463

>  <standard_relation>  (81) 
=

>  <assay_description>  (81) 
Inhibition of adrenergic alpha2A receptor

>  <published_relation>  (81) 
=

>  <standard_value>  (81) 
1930

>  <qudt_units>  (81) 
http://www.openphacts.org/units/Nanomolar

>  <target_tax_id>  (81) 
9606

>  <bao_label>  (81) 
single protein format

>  <published_units>  (81) 
nM

>  <pchembl_value>  (81) 
5.71

>  <published_type>  (81) 
IC50

>  <activity_comment>  (81) 
None

$$$$

     RDKit          

 27 29  0  0  0  0  0  0  0  0999 V2000
    0.0000    0.0000    0.0000 C   0  0  0  0  0  0  0  0  0  0  0  0
    0.0000    0.0000    0.0000 N   0  0  0  0  0  0  0  0  0  0  0  0
    0.0000    0.0000    0.0000 C   0  0  0  0  0  0  0  0  0  0  0  0
    0.0000    0.0000    0.0000 C   0  0  0  0  0  0  0  0  0  0  0  0
    0.0000    0.0000    0.0000 C   0  0  0  0  0  0  0  0  0  0  0  0
    0.0000    0.0000    0.0000 C   0  0  0  0  0  0  0  0  0  0  0  0
    0.0000    0.0000    0.0000 C   0  0  0  0  0  0  0  0  0  0  0  0
    0.0000    0.0000    0.0000 N   0  0  0  0  0  0  0  0  0  0  0  0
    0.0000    0.0000    0.0000 C   0  0  0  0  0  0  0  0  0  0  0  0
    0.0000    0.0000    0.0000 N   0  0  0  0  0  0  0  0  0  0  0  0
    0.0000    0.0000    0.0000 C   0  0  0  0  0  0  0  0  0  0  0  0
    0.0000    0.0000    0.0000 C   0  0  0  0  0  0  0  0  0  0  0  0
    0.0000    0.0000    0.0000 C   0  0  0  0  0  0  0  0  0  0  0  0
    0.0000    0.0000    0.0000 C   0  0  0  0  0  0  0  0  0  0  0  0
    0.0000    0.0000    0.0000 C   0  0  0  0  0  0  0  0  0  0  0  0
    0.0000    0.0000    0.0000 C   0  0  0  0  0  0  0  0  0  0  0  0
    0.0000    0.0000    0.0000 N   0  0  0  0  0  0  0  0  0  0  0  0
    0.0000    0.0000    0.0000 C   0  0  0  0  0  0  0  0  0  0  0  0
    0.0000    0.0000    0.0000 O   0  0  0  0  0  0  0  0  0  0  0  0
    0.0000    0.0000    0.0000 C   0  0  0  0  0  0  0  0  0  0  0  0
    0.0000    0.0000    0.0000 C   0  0  0  0  0  0  0  0  0  0  0  0
    0.0000    0.0000    0.0000 C   0  0  0  0  0  0  0  0  0  0  0  0
    0.0000    0.0000    0.0000 C   0  0  0  0  0  0  0  0  0  0  0  0
    0.0000    0.0000    0.0000 Cl  0  0  0  0  0  0  0  0  0  0  0  0
    0.0000    0.0000    0.0000 C   0  0  0  0  0  0  0  0  0  0  0  0
    0.0000    0.0000    0.0000 C   0  0  0  0  0  0  0  0  0  0  0  0
    0.0000    0.0000    0.0000 N   0  0  0  0  0  0  0  0  0  0  0  0
  1  2  1  0
  2  3  1  0
  2  4  1  0
  4  5  2  0
  5  6  1  0
  6  7  1  0
  6  8  2  0
  8  9  1  0
  9 10  1  0
 10 11  1  0
 11 12  1  0
 12 13  1  0
 13 14  1  0
 14 15  1  0
 15 16  1  0
 14 17  1  0
 17 18  1  0
 18 19  2  0
 18 20  1  0
 20 21  2  0
 21 22  1  0
 22 23  2  0
 23 24  1  0
 23 25  1  0
 25 26  2  0
  9 27  2  0
 27  4  1  0
 16 11  1  0
 26 20  1  0
M  END
>  <pIC50>  (82) 
6.14

>  <ChEMBL_ID>  (82) 
CHEMBL567791

>  <document_journal>  (82) 
Bioorg. Med. Chem. Lett.

>  <bao_endpoint>  (82) 
BAO_0000190

>  <potential_duplicate>  (82) 
False

>  <uo_units>  (82) 
UO_0000065

>  <canonical_smiles>  (82) 
CN(C)c1cc(C)nc(N[C@@H]2CC[C@@H](CC2)NC(=O)c3ccc(Cl)cc3)n1

>  <parent_molecule_chembl_id>  (82) 
CHEMBL567791

>  <assay_type>  (82) 
B

>  <src_id>  (82) 
1

>  <ligand_efficiency>  (82) 
{u'le': u'0.31', u'bei': u'15.82', u'sei': u'8.75', u'lle': u'2.09'}

>  <standard_flag>  (82) 
True

>  <molecule_chembl_id>  (82) 
CHEMBL567791

>  <target_organism>  (82) 
Homo sapiens

>  <standard_units>  (82) 
nM

>  <record_id>  (82) 
855564

>  <document_chembl_id>  (82) 
CHEMBL1156067

>  <bao_format>  (82) 
BAO_0000357

>  <data_validity_description>  (82) 
None

>  <activity_id>  (82) 
3019198

>  <standard_type>  (82) 
IC50

>  <target_chembl_id>  (82) 
CHEMBL1867

>  <data_validity_comment>  (82) 
None

>  <published_value>  (82) 
0.73

>  <document_year>  (82) 
2009

>  <target_pref_name>  (82) 
Alpha-2a adrenergic receptor

>  <assay_chembl_id>  (82) 
CHEMBL1037060

>  <standard_relation>  (82) 
=

>  <assay_description>  (82) 
Displacement of [3H]MK-912 from human adrenergic alpha2A receptor

>  <published_relation>  (82) 
=

>  <standard_value>  (82) 
730

>  <qudt_units>  (82) 
http://www.openphacts.org/units/Nanomolar

>  <target_tax_id>  (82) 
9606

>  <bao_label>  (82) 
single protein format

>  <published_units>  (82) 
uM

>  <pchembl_value>  (82) 
6.14

>  <published_type>  (82) 
IC50

>  <activity_comment>  (82) 
None

$$$$

     RDKit          

 28 30  0  0  0  0  0  0  0  0999 V2000
    0.0000    0.0000    0.0000 C   0  0  0  0  0  0  0  0  0  0  0  0
    0.0000    0.0000    0.0000 N   0  0  0  0  0  0  0  0  0  0  0  0
    0.0000    0.0000    0.0000 C   0  0  0  0  0  0  0  0  0  0  0  0
    0.0000    0.0000    0.0000 C   0  0  0  0  0  0  0  0  0  0  0  0
    0.0000    0.0000    0.0000 C   0  0  0  0  0  0  0  0  0  0  0  0
    0.0000    0.0000    0.0000 C   0  0  0  0  0  0  0  0  0  0  0  0
    0.0000    0.0000    0.0000 C   0  0  0  0  0  0  0  0  0  0  0  0
    0.0000    0.0000    0.0000 N   0  0  0  0  0  0  0  0  0  0  0  0
    0.0000    0.0000    0.0000 C   0  0  0  0  0  0  0  0  0  0  0  0
    0.0000    0.0000    0.0000 N   0  0  0  0  0  0  0  0  0  0  0  0
    0.0000    0.0000    0.0000 C   0  0  0  0  0  0  0  0  0  0  0  0
    0.0000    0.0000    0.0000 C   0  0  0  0  0  0  0  0  0  0  0  0
    0.0000    0.0000    0.0000 C   0  0  0  0  0  0  0  0  0  0  0  0
    0.0000    0.0000    0.0000 C   0  0  0  0  0  0  0  0  0  0  0  0
    0.0000    0.0000    0.0000 C   0  0  0  0  0  0  0  0  0  0  0  0
    0.0000    0.0000    0.0000 C   0  0  0  0  0  0  0  0  0  0  0  0
    0.0000    0.0000    0.0000 N   0  0  0  0  0  0  0  0  0  0  0  0
    0.0000    0.0000    0.0000 C   0  0  0  0  0  0  0  0  0  0  0  0
    0.0000    0.0000    0.0000 O   0  0  0  0  0  0  0  0  0  0  0  0
    0.0000    0.0000    0.0000 C   0  0  0  0  0  0  0  0  0  0  0  0
    0.0000    0.0000    0.0000 C   0  0  0  0  0  0  0  0  0  0  0  0
    0.0000    0.0000    0.0000 C   0  0  0  0  0  0  0  0  0  0  0  0
    0.0000    0.0000    0.0000 C   0  0  0  0  0  0  0  0  0  0  0  0
    0.0000    0.0000    0.0000 Cl  0  0  0  0  0  0  0  0  0  0  0  0
    0.0000    0.0000    0.0000 C   0  0  0  0  0  0  0  0  0  0  0  0
    0.0000    0.0000    0.0000 Cl  0  0  0  0  0  0  0  0  0  0  0  0
    0.0000    0.0000    0.0000 C   0  0  0  0  0  0  0  0  0  0  0  0
    0.0000    0.0000    0.0000 N   0  0  0  0  0  0  0  0  0  0  0  0
  1  2  1  0
  2  3  1  0
  2  4  1  0
  4  5  2  0
  5  6  1  0
  6  7  1  0
  6  8  2  0
  8  9  1  0
  9 10  1  0
 10 11  1  0
 11 12  1  0
 12 13  1  0
 13 14  1  0
 14 15  1  0
 15 16  1  0
 14 17  1  0
 17 18  1  0
 18 19  2  0
 18 20  1  0
 20 21  2  0
 21 22  1  0
 22 23  2  0
 23 24  1  0
 23 25  1  0
 25 26  1  0
 25 27  2  0
  9 28  2  0
 28  4  1  0
 16 11  1  0
 27 20  1  0
M  END
>  <pIC50>  (83) 
6.89

>  <ChEMBL_ID>  (83) 
CHEMBL568400

>  <document_journal>  (83) 
Bioorg. Med. Chem. Lett.

>  <bao_endpoint>  (83) 
BAO_0000190

>  <potential_duplicate>  (83) 
False

>  <uo_units>  (83) 
UO_0000065

>  <canonical_smiles>  (83) 
CN(C)c1cc(C)nc(N[C@@H]2CC[C@@H](CC2)NC(=O)c3ccc(Cl)c(Cl)c3)n1

>  <parent_molecule_chembl_id>  (83) 
CHEMBL568400

>  <assay_type>  (83) 
B

>  <src_id>  (83) 
1

>  <ligand_efficiency>  (83) 
{u'le': u'0.34', u'bei': u'16.3', u'sei': u'9.82', u'lle': u'2.18'}

>  <standard_flag>  (83) 
True

>  <molecule_chembl_id>  (83) 
CHEMBL568400

>  <target_organism>  (83) 
Homo sapiens

>  <standard_units>  (83) 
nM

>  <record_id>  (83) 
855666

>  <document_chembl_id>  (83) 
CHEMBL1156067

>  <bao_format>  (83) 
BAO_0000357

>  <data_validity_description>  (83) 
None

>  <activity_id>  (83) 
3019199

>  <standard_type>  (83) 
IC50

>  <target_chembl_id>  (83) 
CHEMBL1867

>  <data_validity_comment>  (83) 
None

>  <published_value>  (83) 
0.13

>  <document_year>  (83) 
2009

>  <target_pref_name>  (83) 
Alpha-2a adrenergic receptor

>  <assay_chembl_id>  (83) 
CHEMBL1037060

>  <standard_relation>  (83) 
=

>  <assay_description>  (83) 
Displacement of [3H]MK-912 from human adrenergic alpha2A receptor

>  <published_relation>  (83) 
=

>  <standard_value>  (83) 
130

>  <qudt_units>  (83) 
http://www.openphacts.org/units/Nanomolar

>  <target_tax_id>  (83) 
9606

>  <bao_label>  (83) 
single protein format

>  <published_units>  (83) 
uM

>  <pchembl_value>  (83) 
6.89

>  <published_type>  (83) 
IC50

>  <activity_comment>  (83) 
None

$$$$

     RDKit          

 34 36  0  0  0  0  0  0  0  0999 V2000
    0.0000    0.0000    0.0000 C   0  0  0  0  0  0  0  0  0  0  0  0
    0.0000    0.0000    0.0000 N   0  0  0  0  0  0  0  0  0  0  0  0
    0.0000    0.0000    0.0000 C   0  0  0  0  0  0  0  0  0  0  0  0
    0.0000    0.0000    0.0000 C   0  0  0  0  0  0  0  0  0  0  0  0
    0.0000    0.0000    0.0000 C   0  0  0  0  0  0  0  0  0  0  0  0
    0.0000    0.0000    0.0000 C   0  0  0  0  0  0  0  0  0  0  0  0
    0.0000    0.0000    0.0000 C   0  0  0  0  0  0  0  0  0  0  0  0
    0.0000    0.0000    0.0000 N   0  0  0  0  0  0  0  0  0  0  0  0
    0.0000    0.0000    0.0000 C   0  0  0  0  0  0  0  0  0  0  0  0
    0.0000    0.0000    0.0000 N   0  0  0  0  0  0  0  0  0  0  0  0
    0.0000    0.0000    0.0000 C   0  0  0  0  0  0  0  0  0  0  0  0
    0.0000    0.0000    0.0000 C   0  0  0  0  0  0  0  0  0  0  0  0
    0.0000    0.0000    0.0000 C   0  0  0  0  0  0  0  0  0  0  0  0
    0.0000    0.0000    0.0000 C   0  0  0  0  0  0  0  0  0  0  0  0
    0.0000    0.0000    0.0000 C   0  0  0  0  0  0  0  0  0  0  0  0
    0.0000    0.0000    0.0000 C   0  0  0  0  0  0  0  0  0  0  0  0
    0.0000    0.0000    0.0000 N   0  0  0  0  0  0  0  0  0  0  0  0
    0.0000    0.0000    0.0000 C   0  0  0  0  0  0  0  0  0  0  0  0
    0.0000    0.0000    0.0000 O   0  0  0  0  0  0  0  0  0  0  0  0
    0.0000    0.0000    0.0000 C   0  0  0  0  0  0  0  0  0  0  0  0
    0.0000    0.0000    0.0000 C   0  0  0  0  0  0  0  0  0  0  0  0
    0.0000    0.0000    0.0000 C   0  0  0  0  0  0  0  0  0  0  0  0
    0.0000    0.0000    0.0000 C   0  0  0  0  0  0  0  0  0  0  0  0
    0.0000    0.0000    0.0000 C   0  0  0  0  0  0  0  0  0  0  0  0
    0.0000    0.0000    0.0000 C   0  0  0  0  0  0  0  0  0  0  0  0
    0.0000    0.0000    0.0000 C   0  0  0  0  0  0  0  0  0  0  0  0
    0.0000    0.0000    0.0000 F   0  0  0  0  0  0  0  0  0  0  0  0
    0.0000    0.0000    0.0000 F   0  0  0  0  0  0  0  0  0  0  0  0
    0.0000    0.0000    0.0000 F   0  0  0  0  0  0  0  0  0  0  0  0
    0.0000    0.0000    0.0000 C   0  0  0  0  0  0  0  0  0  0  0  0
    0.0000    0.0000    0.0000 F   0  0  0  0  0  0  0  0  0  0  0  0
    0.0000    0.0000    0.0000 F   0  0  0  0  0  0  0  0  0  0  0  0
    0.0000    0.0000    0.0000 F   0  0  0  0  0  0  0  0  0  0  0  0
    0.0000    0.0000    0.0000 N   0  0  0  0  0  0  0  0  0  0  0  0
  1  2  1  0
  2  3  1  0
  2  4  1  0
  4  5  2  0
  5  6  1  0
  6  7  1  0
  6  8  2  0
  8  9  1  0
  9 10  1  0
 10 11  1  0
 11 12  1  0
 12 13  1  0
 13 14  1  0
 14 15  1  0
 15 16  1  0
 14 17  1  0
 17 18  1  0
 18 19  2  0
 18 20  1  0
 20 21  2  0
 21 22  1  0
 22 23  2  0
 23 24  1  0
 24 25  2  0
 24 26  1  0
 26 27  1  0
 26 28  1  0
 26 29  1  0
 22 30  1  0
 30 31  1  0
 30 32  1  0
 30 33  1  0
  9 34  2  0
 34  4  1  0
 16 11  1  0
 25 20  1  0
M  END
>  <pIC50>  (84) 
6.7

>  <ChEMBL_ID>  (84) 
CHEMBL583014

>  <document_journal>  (84) 
Bioorg. Med. Chem. Lett.

>  <bao_endpoint>  (84) 
BAO_0000190

>  <potential_duplicate>  (84) 
False

>  <uo_units>  (84) 
UO_0000065

>  <canonical_smiles>  (84) 
CN(C)c1cc(C)nc(N[C@@H]2CC[C@@H](CC2)NC(=O)c3cc(cc(c3)C(F)(F)F)C(F)(F)F)n1

>  <parent_molecule_chembl_id>  (84) 
CHEMBL583014

>  <assay_type>  (84) 
B

>  <src_id>  (84) 
1

>  <ligand_efficiency>  (84) 
{u'le': u'0.27', u'bei': u'13.69', u'sei': u'9.55', u'lle': u'1.43'}

>  <standard_flag>  (84) 
True

>  <molecule_chembl_id>  (84) 
CHEMBL583014

>  <target_organism>  (84) 
Homo sapiens

>  <standard_units>  (84) 
nM

>  <record_id>  (84) 
855684

>  <document_chembl_id>  (84) 
CHEMBL1156067

>  <bao_format>  (84) 
BAO_0000357

>  <data_validity_description>  (84) 
None

>  <activity_id>  (84) 
3019200

>  <standard_type>  (84) 
IC50

>  <target_chembl_id>  (84) 
CHEMBL1867

>  <data_validity_comment>  (84) 
None

>  <published_value>  (84) 
0.2

>  <document_year>  (84) 
2009

>  <target_pref_name>  (84) 
Alpha-2a adrenergic receptor

>  <assay_chembl_id>  (84) 
CHEMBL1037060

>  <standard_relation>  (84) 
=

>  <assay_description>  (84) 
Displacement of [3H]MK-912 from human adrenergic alpha2A receptor

>  <published_relation>  (84) 
=

>  <standard_value>  (84) 
200

>  <qudt_units>  (84) 
http://www.openphacts.org/units/Nanomolar

>  <target_tax_id>  (84) 
9606

>  <bao_label>  (84) 
single protein format

>  <published_units>  (84) 
uM

>  <pchembl_value>  (84) 
6.7

>  <published_type>  (84) 
IC50

>  <activity_comment>  (84) 
None

$$$$

     RDKit          

 27 29  0  0  0  0  0  0  0  0999 V2000
    0.0000    0.0000    0.0000 C   0  0  0  0  0  0  0  0  0  0  0  0
    0.0000    0.0000    0.0000 N   0  0  0  0  0  0  0  0  0  0  0  0
    0.0000    0.0000    0.0000 C   0  0  0  0  0  0  0  0  0  0  0  0
    0.0000    0.0000    0.0000 C   0  0  0  0  0  0  0  0  0  0  0  0
    0.0000    0.0000    0.0000 N   0  0  0  0  0  0  0  0  0  0  0  0
    0.0000    0.0000    0.0000 C   0  0  0  0  0  0  0  0  0  0  0  0
    0.0000    0.0000    0.0000 N   0  0  0  0  0  0  0  0  0  0  0  0
    0.0000    0.0000    0.0000 C   0  0  0  0  0  0  0  0  0  0  0  0
    0.0000    0.0000    0.0000 C   0  0  0  0  0  0  0  0  0  0  0  0
    0.0000    0.0000    0.0000 C   0  0  0  0  0  0  0  0  0  0  0  0
    0.0000    0.0000    0.0000 C   0  0  0  0  0  0  0  0  0  0  0  0
    0.0000    0.0000    0.0000 C   0  0  0  0  0  0  0  0  0  0  0  0
    0.0000    0.0000    0.0000 C   0  0  0  0  0  0  0  0  0  0  0  0
    0.0000    0.0000    0.0000 N   0  0  0  0  0  0  0  0  0  0  0  0
    0.0000    0.0000    0.0000 C   0  0  0  0  0  0  0  0  0  0  0  0
    0.0000    0.0000    0.0000 O   0  0  0  0  0  0  0  0  0  0  0  0
    0.0000    0.0000    0.0000 C   0  0  0  0  0  0  0  0  0  0  0  0
    0.0000    0.0000    0.0000 C   0  0  0  0  0  0  0  0  0  0  0  0
    0.0000    0.0000    0.0000 C   0  0  0  0  0  0  0  0  0  0  0  0
    0.0000    0.0000    0.0000 C   0  0  0  0  0  0  0  0  0  0  0  0
    0.0000    0.0000    0.0000 C   0  0  0  0  0  0  0  0  0  0  0  0
    0.0000    0.0000    0.0000 C   0  0  0  0  0  0  0  0  0  0  0  0
    0.0000    0.0000    0.0000 C   0  0  0  0  0  0  0  0  0  0  0  0
    0.0000    0.0000    0.0000 N   0  0  0  0  0  0  0  0  0  0  0  0
    0.0000    0.0000    0.0000 C   0  0  0  0  0  0  0  0  0  0  0  0
    0.0000    0.0000    0.0000 C   0  0  0  0  0  0  0  0  0  0  0  0
    0.0000    0.0000    0.0000 C   0  0  0  0  0  0  0  0  0  0  0  0
  1  2  1  0
  2  3  1  0
  2  4  1  0
  4  5  2  0
  5  6  1  0
  6  7  1  0
  7  8  1  0
  8  9  1  0
  9 10  1  0
 10 11  1  0
 11 12  1  0
 12 13  1  0
 11 14  1  0
 14 15  1  0
 15 16  2  0
 15 17  1  0
 17 18  2  0
 18 19  1  0
 19 20  2  0
 20 21  1  0
 21 22  1  0
 21 23  2  0
  6 24  2  0
 24 25  1  0
 25 26  2  0
 26 27  1  0
 26  4  1  0
 13  8  1  0
 23 17  1  0
M  END
>  <pIC50>  (85) 
6.24

>  <ChEMBL_ID>  (85) 
CHEMBL567993

>  <document_journal>  (85) 
Bioorg. Med. Chem. Lett.

>  <bao_endpoint>  (85) 
BAO_0000190

>  <potential_duplicate>  (85) 
False

>  <uo_units>  (85) 
UO_0000065

>  <canonical_smiles>  (85) 
CN(C)c1nc(N[C@@H]2CC[C@@H](CC2)NC(=O)c3cccc(C)c3)ncc1C

>  <parent_molecule_chembl_id>  (85) 
CHEMBL567993

>  <assay_type>  (85) 
B

>  <src_id>  (85) 
1

>  <ligand_efficiency>  (85) 
{u'le': u'0.32', u'bei': u'16.97', u'sei': u'8.89', u'lle': u'2.17'}

>  <standard_flag>  (85) 
True

>  <molecule_chembl_id>  (85) 
CHEMBL567993

>  <target_organism>  (85) 
Homo sapiens

>  <standard_units>  (85) 
nM

>  <record_id>  (85) 
855685

>  <document_chembl_id>  (85) 
CHEMBL1156067

>  <bao_format>  (85) 
BAO_0000357

>  <data_validity_description>  (85) 
None

>  <activity_id>  (85) 
3019201

>  <standard_type>  (85) 
IC50

>  <target_chembl_id>  (85) 
CHEMBL1867

>  <data_validity_comment>  (85) 
None

>  <published_value>  (85) 
0.58

>  <document_year>  (85) 
2009

>  <target_pref_name>  (85) 
Alpha-2a adrenergic receptor

>  <assay_chembl_id>  (85) 
CHEMBL1037060

>  <standard_relation>  (85) 
=

>  <assay_description>  (85) 
Displacement of [3H]MK-912 from human adrenergic alpha2A receptor

>  <published_relation>  (85) 
=

>  <standard_value>  (85) 
580

>  <qudt_units>  (85) 
http://www.openphacts.org/units/Nanomolar

>  <target_tax_id>  (85) 
9606

>  <bao_label>  (85) 
single protein format

>  <published_units>  (85) 
uM

>  <pchembl_value>  (85) 
6.24

>  <published_type>  (85) 
IC50

>  <activity_comment>  (85) 
None

$$$$

     RDKit          

 27 29  0  0  0  0  0  0  0  0999 V2000
    0.0000    0.0000    0.0000 C   0  0  0  0  0  0  0  0  0  0  0  0
    0.0000    0.0000    0.0000 N   0  0  0  0  0  0  0  0  0  0  0  0
    0.0000    0.0000    0.0000 C   0  0  0  0  0  0  0  0  0  0  0  0
    0.0000    0.0000    0.0000 C   0  0  0  0  0  0  0  0  0  0  0  0
    0.0000    0.0000    0.0000 N   0  0  0  0  0  0  0  0  0  0  0  0
    0.0000    0.0000    0.0000 C   0  0  0  0  0  0  0  0  0  0  0  0
    0.0000    0.0000    0.0000 N   0  0  0  0  0  0  0  0  0  0  0  0
    0.0000    0.0000    0.0000 C   0  0  0  0  0  0  0  0  0  0  0  0
    0.0000    0.0000    0.0000 C   0  0  0  0  0  0  0  0  0  0  0  0
    0.0000    0.0000    0.0000 C   0  0  0  0  0  0  0  0  0  0  0  0
    0.0000    0.0000    0.0000 C   0  0  0  0  0  0  0  0  0  0  0  0
    0.0000    0.0000    0.0000 C   0  0  0  0  0  0  0  0  0  0  0  0
    0.0000    0.0000    0.0000 C   0  0  0  0  0  0  0  0  0  0  0  0
    0.0000    0.0000    0.0000 N   0  0  0  0  0  0  0  0  0  0  0  0
    0.0000    0.0000    0.0000 C   0  0  0  0  0  0  0  0  0  0  0  0
    0.0000    0.0000    0.0000 O   0  0  0  0  0  0  0  0  0  0  0  0
    0.0000    0.0000    0.0000 C   0  0  0  0  0  0  0  0  0  0  0  0
    0.0000    0.0000    0.0000 C   0  0  0  0  0  0  0  0  0  0  0  0
    0.0000    0.0000    0.0000 C   0  0  0  0  0  0  0  0  0  0  0  0
    0.0000    0.0000    0.0000 C   0  0  0  0  0  0  0  0  0  0  0  0
    0.0000    0.0000    0.0000 C   0  0  0  0  0  0  0  0  0  0  0  0
    0.0000    0.0000    0.0000 C   0  0  0  0  0  0  0  0  0  0  0  0
    0.0000    0.0000    0.0000 C   0  0  0  0  0  0  0  0  0  0  0  0
    0.0000    0.0000    0.0000 N   0  0  0  0  0  0  0  0  0  0  0  0
    0.0000    0.0000    0.0000 C   0  0  0  0  0  0  0  0  0  0  0  0
    0.0000    0.0000    0.0000 C   0  0  0  0  0  0  0  0  0  0  0  0
    0.0000    0.0000    0.0000 C   0  0  0  0  0  0  0  0  0  0  0  0
  1  2  1  0
  2  3  1  0
  2  4  1  0
  4  5  2  0
  5  6  1  0
  6  7  1  0
  7  8  1  0
  8  9  1  0
  9 10  1  0
 10 11  1  0
 11 12  1  0
 12 13  1  0
 11 14  1  0
 14 15  1  0
 15 16  2  0
 15 17  1  0
 17 18  2  0
 18 19  1  0
 19 20  2  0
 20 21  1  0
 20 22  1  0
 22 23  2  0
  6 24  2  0
 24 25  1  0
 25 26  2  0
 26 27  1  0
 26  4  1  0
 13  8  1  0
 23 17  1  0
M  END
>  <pIC50>  (86) 
5.75

>  <ChEMBL_ID>  (86) 
CHEMBL578170

>  <document_journal>  (86) 
Bioorg. Med. Chem. Lett.

>  <bao_endpoint>  (86) 
BAO_0000190

>  <potential_duplicate>  (86) 
False

>  <uo_units>  (86) 
UO_0000065

>  <canonical_smiles>  (86) 
CN(C)c1nc(N[C@@H]2CC[C@@H](CC2)NC(=O)c3ccc(C)cc3)ncc1C

>  <parent_molecule_chembl_id>  (86) 
CHEMBL578170

>  <assay_type>  (86) 
B

>  <src_id>  (86) 
1

>  <ligand_efficiency>  (86) 
{u'le': u'0.29', u'bei': u'15.65', u'sei': u'8.2', u'lle': u'1.68'}

>  <standard_flag>  (86) 
True

>  <molecule_chembl_id>  (86) 
CHEMBL578170

>  <target_organism>  (86) 
Homo sapiens

>  <standard_units>  (86) 
nM

>  <record_id>  (86) 
855575

>  <document_chembl_id>  (86) 
CHEMBL1156067

>  <bao_format>  (86) 
BAO_0000357

>  <data_validity_description>  (86) 
None

>  <activity_id>  (86) 
3019202

>  <standard_type>  (86) 
IC50

>  <target_chembl_id>  (86) 
CHEMBL1867

>  <data_validity_comment>  (86) 
None

>  <published_value>  (86) 
1.77

>  <document_year>  (86) 
2009

>  <target_pref_name>  (86) 
Alpha-2a adrenergic receptor

>  <assay_chembl_id>  (86) 
CHEMBL1037060

>  <standard_relation>  (86) 
=

>  <assay_description>  (86) 
Displacement of [3H]MK-912 from human adrenergic alpha2A receptor

>  <published_relation>  (86) 
=

>  <standard_value>  (86) 
1770

>  <qudt_units>  (86) 
http://www.openphacts.org/units/Nanomolar

>  <target_tax_id>  (86) 
9606

>  <bao_label>  (86) 
single protein format

>  <published_units>  (86) 
uM

>  <pchembl_value>  (86) 
5.75

>  <published_type>  (86) 
IC50

>  <activity_comment>  (86) 
None

$$$$

     RDKit          

 27 29  0  0  0  0  0  0  0  0999 V2000
    0.0000    0.0000    0.0000 C   0  0  0  0  0  0  0  0  0  0  0  0
    0.0000    0.0000    0.0000 N   0  0  0  0  0  0  0  0  0  0  0  0
    0.0000    0.0000    0.0000 C   0  0  0  0  0  0  0  0  0  0  0  0
    0.0000    0.0000    0.0000 C   0  0  0  0  0  0  0  0  0  0  0  0
    0.0000    0.0000    0.0000 N   0  0  0  0  0  0  0  0  0  0  0  0
    0.0000    0.0000    0.0000 C   0  0  0  0  0  0  0  0  0  0  0  0
    0.0000    0.0000    0.0000 N   0  0  0  0  0  0  0  0  0  0  0  0
    0.0000    0.0000    0.0000 C   0  0  0  0  0  0  0  0  0  0  0  0
    0.0000    0.0000    0.0000 C   0  0  0  0  0  0  0  0  0  0  0  0
    0.0000    0.0000    0.0000 C   0  0  0  0  0  0  0  0  0  0  0  0
    0.0000    0.0000    0.0000 C   0  0  0  0  0  0  0  0  0  0  0  0
    0.0000    0.0000    0.0000 C   0  0  0  0  0  0  0  0  0  0  0  0
    0.0000    0.0000    0.0000 C   0  0  0  0  0  0  0  0  0  0  0  0
    0.0000    0.0000    0.0000 N   0  0  0  0  0  0  0  0  0  0  0  0
    0.0000    0.0000    0.0000 C   0  0  0  0  0  0  0  0  0  0  0  0
    0.0000    0.0000    0.0000 O   0  0  0  0  0  0  0  0  0  0  0  0
    0.0000    0.0000    0.0000 C   0  0  0  0  0  0  0  0  0  0  0  0
    0.0000    0.0000    0.0000 C   0  0  0  0  0  0  0  0  0  0  0  0
    0.0000    0.0000    0.0000 C   0  0  0  0  0  0  0  0  0  0  0  0
    0.0000    0.0000    0.0000 C   0  0  0  0  0  0  0  0  0  0  0  0
    0.0000    0.0000    0.0000 F   0  0  0  0  0  0  0  0  0  0  0  0
    0.0000    0.0000    0.0000 C   0  0  0  0  0  0  0  0  0  0  0  0
    0.0000    0.0000    0.0000 C   0  0  0  0  0  0  0  0  0  0  0  0
    0.0000    0.0000    0.0000 N   0  0  0  0  0  0  0  0  0  0  0  0
    0.0000    0.0000    0.0000 C   0  0  0  0  0  0  0  0  0  0  0  0
    0.0000    0.0000    0.0000 C   0  0  0  0  0  0  0  0  0  0  0  0
    0.0000    0.0000    0.0000 C   0  0  0  0  0  0  0  0  0  0  0  0
  1  2  1  0
  2  3  1  0
  2  4  1  0
  4  5  2  0
  5  6  1  0
  6  7  1  0
  7  8  1  0
  8  9  1  0
  9 10  1  0
 10 11  1  0
 11 12  1  0
 12 13  1  0
 11 14  1  0
 14 15  1  0
 15 16  2  0
 15 17  1  0
 17 18  2  0
 18 19  1  0
 19 20  2  0
 20 21  1  0
 20 22  1  0
 22 23  2  0
  6 24  2  0
 24 25  1  0
 25 26  2  0
 26 27  1  0
 26  4  1  0
 13  8  1  0
 23 17  1  0
M  END
>  <pIC50>  (87) 
6.33

>  <ChEMBL_ID>  (87) 
CHEMBL565551

>  <document_journal>  (87) 
Bioorg. Med. Chem. Lett.

>  <bao_endpoint>  (87) 
BAO_0000190

>  <potential_duplicate>  (87) 
False

>  <uo_units>  (87) 
UO_0000065

>  <canonical_smiles>  (87) 
CN(C)c1nc(N[C@@H]2CC[C@@H](CC2)NC(=O)c3ccc(F)cc3)ncc1C

>  <parent_molecule_chembl_id>  (87) 
CHEMBL565551

>  <assay_type>  (87) 
B

>  <src_id>  (87) 
1

>  <ligand_efficiency>  (87) 
{u'le': u'0.32', u'bei': u'17.04', u'sei': u'9.02', u'lle': u'2.54'}

>  <standard_flag>  (87) 
True

>  <molecule_chembl_id>  (87) 
CHEMBL565551

>  <target_organism>  (87) 
Homo sapiens

>  <standard_units>  (87) 
nM

>  <record_id>  (87) 
855589

>  <document_chembl_id>  (87) 
CHEMBL1156067

>  <bao_format>  (87) 
BAO_0000357

>  <data_validity_description>  (87) 
None

>  <activity_id>  (87) 
3019203

>  <standard_type>  (87) 
IC50

>  <target_chembl_id>  (87) 
CHEMBL1867

>  <data_validity_comment>  (87) 
None

>  <published_value>  (87) 
0.47

>  <document_year>  (87) 
2009

>  <target_pref_name>  (87) 
Alpha-2a adrenergic receptor

>  <assay_chembl_id>  (87) 
CHEMBL1037060

>  <standard_relation>  (87) 
=

>  <assay_description>  (87) 
Displacement of [3H]MK-912 from human adrenergic alpha2A receptor

>  <published_relation>  (87) 
=

>  <standard_value>  (87) 
470

>  <qudt_units>  (87) 
http://www.openphacts.org/units/Nanomolar

>  <target_tax_id>  (87) 
9606

>  <bao_label>  (87) 
single protein format

>  <published_units>  (87) 
uM

>  <pchembl_value>  (87) 
6.33

>  <published_type>  (87) 
IC50

>  <activity_comment>  (87) 
None

$$$$

     RDKit          

 27 29  0  0  0  0  0  0  0  0999 V2000
    0.0000    0.0000    0.0000 C   0  0  0  0  0  0  0  0  0  0  0  0
    0.0000    0.0000    0.0000 N   0  0  0  0  0  0  0  0  0  0  0  0
    0.0000    0.0000    0.0000 C   0  0  0  0  0  0  0  0  0  0  0  0
    0.0000    0.0000    0.0000 C   0  0  0  0  0  0  0  0  0  0  0  0
    0.0000    0.0000    0.0000 N   0  0  0  0  0  0  0  0  0  0  0  0
    0.0000    0.0000    0.0000 C   0  0  0  0  0  0  0  0  0  0  0  0
    0.0000    0.0000    0.0000 N   0  0  0  0  0  0  0  0  0  0  0  0
    0.0000    0.0000    0.0000 C   0  0  0  0  0  0  0  0  0  0  0  0
    0.0000    0.0000    0.0000 C   0  0  0  0  0  0  0  0  0  0  0  0
    0.0000    0.0000    0.0000 C   0  0  0  0  0  0  0  0  0  0  0  0
    0.0000    0.0000    0.0000 C   0  0  0  0  0  0  0  0  0  0  0  0
    0.0000    0.0000    0.0000 C   0  0  0  0  0  0  0  0  0  0  0  0
    0.0000    0.0000    0.0000 C   0  0  0  0  0  0  0  0  0  0  0  0
    0.0000    0.0000    0.0000 N   0  0  0  0  0  0  0  0  0  0  0  0
    0.0000    0.0000    0.0000 C   0  0  0  0  0  0  0  0  0  0  0  0
    0.0000    0.0000    0.0000 O   0  0  0  0  0  0  0  0  0  0  0  0
    0.0000    0.0000    0.0000 C   0  0  0  0  0  0  0  0  0  0  0  0
    0.0000    0.0000    0.0000 C   0  0  0  0  0  0  0  0  0  0  0  0
    0.0000    0.0000    0.0000 C   0  0  0  0  0  0  0  0  0  0  0  0
    0.0000    0.0000    0.0000 C   0  0  0  0  0  0  0  0  0  0  0  0
    0.0000    0.0000    0.0000 Cl  0  0  0  0  0  0  0  0  0  0  0  0
    0.0000    0.0000    0.0000 C   0  0  0  0  0  0  0  0  0  0  0  0
    0.0000    0.0000    0.0000 C   0  0  0  0  0  0  0  0  0  0  0  0
    0.0000    0.0000    0.0000 N   0  0  0  0  0  0  0  0  0  0  0  0
    0.0000    0.0000    0.0000 C   0  0  0  0  0  0  0  0  0  0  0  0
    0.0000    0.0000    0.0000 C   0  0  0  0  0  0  0  0  0  0  0  0
    0.0000    0.0000    0.0000 C   0  0  0  0  0  0  0  0  0  0  0  0
  1  2  1  0
  2  3  1  0
  2  4  1  0
  4  5  2  0
  5  6  1  0
  6  7  1  0
  7  8  1  0
  8  9  1  0
  9 10  1  0
 10 11  1  0
 11 12  1  0
 12 13  1  0
 11 14  1  0
 14 15  1  0
 15 16  2  0
 15 17  1  0
 17 18  2  0
 18 19  1  0
 19 20  2  0
 20 21  1  0
 20 22  1  0
 22 23  2  0
  6 24  2  0
 24 25  1  0
 25 26  2  0
 26 27  1  0
 26  4  1  0
 13  8  1  0
 23 17  1  0
M  END
>  <pIC50>  (88) 
5.8

>  <ChEMBL_ID>  (88) 
CHEMBL577912

>  <document_journal>  (88) 
Bioorg. Med. Chem. Lett.

>  <bao_endpoint>  (88) 
BAO_0000190

>  <potential_duplicate>  (88) 
False

>  <uo_units>  (88) 
UO_0000065

>  <canonical_smiles>  (88) 
CN(C)c1nc(N[C@@H]2CC[C@@H](CC2)NC(=O)c3ccc(Cl)cc3)ncc1C

>  <parent_molecule_chembl_id>  (88) 
CHEMBL577912

>  <assay_type>  (88) 
B

>  <src_id>  (88) 
1

>  <ligand_efficiency>  (88) 
{u'le': u'0.29', u'bei': u'14.95', u'sei': u'8.27', u'lle': u'1.55'}

>  <standard_flag>  (88) 
True

>  <molecule_chembl_id>  (88) 
CHEMBL577912

>  <target_organism>  (88) 
Homo sapiens

>  <standard_units>  (88) 
nM

>  <record_id>  (88) 
855607

>  <document_chembl_id>  (88) 
CHEMBL1156067

>  <bao_format>  (88) 
BAO_0000357

>  <data_validity_description>  (88) 
None

>  <activity_id>  (88) 
3019204

>  <standard_type>  (88) 
IC50

>  <target_chembl_id>  (88) 
CHEMBL1867

>  <data_validity_comment>  (88) 
None

>  <published_value>  (88) 
1.59

>  <document_year>  (88) 
2009

>  <target_pref_name>  (88) 
Alpha-2a adrenergic receptor

>  <assay_chembl_id>  (88) 
CHEMBL1037060

>  <standard_relation>  (88) 
=

>  <assay_description>  (88) 
Displacement of [3H]MK-912 from human adrenergic alpha2A receptor

>  <published_relation>  (88) 
=

>  <standard_value>  (88) 
1590

>  <qudt_units>  (88) 
http://www.openphacts.org/units/Nanomolar

>  <target_tax_id>  (88) 
9606

>  <bao_label>  (88) 
single protein format

>  <published_units>  (88) 
uM

>  <pchembl_value>  (88) 
5.8

>  <published_type>  (88) 
IC50

>  <activity_comment>  (88) 
None

$$$$

     RDKit          

 29 31  0  0  0  0  0  0  0  0999 V2000
    0.0000    0.0000    0.0000 C   0  0  0  0  0  0  0  0  0  0  0  0
    0.0000    0.0000    0.0000 N   0  0  0  0  0  0  0  0  0  0  0  0
    0.0000    0.0000    0.0000 C   0  0  0  0  0  0  0  0  0  0  0  0
    0.0000    0.0000    0.0000 C   0  0  0  0  0  0  0  0  0  0  0  0
    0.0000    0.0000    0.0000 N   0  0  0  0  0  0  0  0  0  0  0  0
    0.0000    0.0000    0.0000 C   0  0  0  0  0  0  0  0  0  0  0  0
    0.0000    0.0000    0.0000 N   0  0  0  0  0  0  0  0  0  0  0  0
    0.0000    0.0000    0.0000 C   0  0  0  0  0  0  0  0  0  0  0  0
    0.0000    0.0000    0.0000 C   0  0  0  0  0  0  0  0  0  0  0  0
    0.0000    0.0000    0.0000 C   0  0  0  0  0  0  0  0  0  0  0  0
    0.0000    0.0000    0.0000 C   0  0  0  0  0  0  0  0  0  0  0  0
    0.0000    0.0000    0.0000 C   0  0  0  0  0  0  0  0  0  0  0  0
    0.0000    0.0000    0.0000 N   0  0  0  0  0  0  0  0  0  0  0  0
    0.0000    0.0000    0.0000 C   0  0  0  0  0  0  0  0  0  0  0  0
    0.0000    0.0000    0.0000 O   0  0  0  0  0  0  0  0  0  0  0  0
    0.0000    0.0000    0.0000 C   0  0  0  0  0  0  0  0  0  0  0  0
    0.0000    0.0000    0.0000 C   0  0  0  0  0  0  0  0  0  0  0  0
    0.0000    0.0000    0.0000 C   0  0  0  0  0  0  0  0  0  0  0  0
    0.0000    0.0000    0.0000 C   0  0  0  0  0  0  0  0  0  0  0  0
    0.0000    0.0000    0.0000 F   0  0  0  0  0  0  0  0  0  0  0  0
    0.0000    0.0000    0.0000 C   0  0  0  0  0  0  0  0  0  0  0  0
    0.0000    0.0000    0.0000 F   0  0  0  0  0  0  0  0  0  0  0  0
    0.0000    0.0000    0.0000 C   0  0  0  0  0  0  0  0  0  0  0  0
    0.0000    0.0000    0.0000 C   0  0  0  0  0  0  0  0  0  0  0  0
    0.0000    0.0000    0.0000 C   0  0  0  0  0  0  0  0  0  0  0  0
    0.0000    0.0000    0.0000 N   0  0  0  0  0  0  0  0  0  0  0  0
    0.0000    0.0000    0.0000 C   0  0  0  0  0  0  0  0  0  0  0  0
    0.0000    0.0000    0.0000 C   0  0  0  0  0  0  0  0  0  0  0  0
    0.0000    0.0000    0.0000 C   0  0  0  0  0  0  0  0  0  0  0  0
  1  2  1  0
  2  3  1  0
  2  4  1  0
  4  5  2  0
  5  6  1  0
  6  7  1  0
  7  8  1  0
  8  9  1  0
  9 10  1  0
 10 11  1  0
 11 12  1  0
 12 13  1  0
 13 14  1  0
 14 15  2  0
 14 16  1  0
 16 17  2  0
 17 18  1  0
 18 19  2  0
 19 20  1  0
 19 21  1  0
 21 22  1  0
 21 23  2  0
 11 24  1  0
 24 25  1  0
  6 26  2  0
 26 27  1  0
 27 28  2  0
 28 29  1  0
 28  4  1  0
 25  8  1  0
 23 16  1  0
M  END
>  <pIC50>  (89) 
6.68

>  <ChEMBL_ID>  (89) 
CHEMBL577904

>  <document_journal>  (89) 
Bioorg. Med. Chem. Lett.

>  <bao_endpoint>  (89) 
BAO_0000190

>  <potential_duplicate>  (89) 
False

>  <uo_units>  (89) 
UO_0000065

>  <canonical_smiles>  (89) 
CN(C)c1nc(N[C@@H]2CC[C@H](CNC(=O)c3ccc(F)c(F)c3)CC2)ncc1C

>  <parent_molecule_chembl_id>  (89) 
CHEMBL577904

>  <assay_type>  (89) 
B

>  <src_id>  (89) 
1

>  <ligand_efficiency>  (89) 
{u'le': u'0.31', u'bei': u'16.55', u'sei': u'9.52', u'lle': u'2.35'}

>  <standard_flag>  (89) 
True

>  <molecule_chembl_id>  (89) 
CHEMBL577904

>  <target_organism>  (89) 
Homo sapiens

>  <standard_units>  (89) 
nM

>  <record_id>  (89) 
855598

>  <document_chembl_id>  (89) 
CHEMBL1156067

>  <bao_format>  (89) 
BAO_0000357

>  <data_validity_description>  (89) 
None

>  <activity_id>  (89) 
3019205

>  <standard_type>  (89) 
IC50

>  <target_chembl_id>  (89) 
CHEMBL1867

>  <data_validity_comment>  (89) 
None

>  <published_value>  (89) 
0.21

>  <document_year>  (89) 
2009

>  <target_pref_name>  (89) 
Alpha-2a adrenergic receptor

>  <assay_chembl_id>  (89) 
CHEMBL1037060

>  <standard_relation>  (89) 
=

>  <assay_description>  (89) 
Displacement of [3H]MK-912 from human adrenergic alpha2A receptor

>  <published_relation>  (89) 
=

>  <standard_value>  (89) 
210

>  <qudt_units>  (89) 
http://www.openphacts.org/units/Nanomolar

>  <target_tax_id>  (89) 
9606

>  <bao_label>  (89) 
single protein format

>  <published_units>  (89) 
uM

>  <pchembl_value>  (89) 
6.68

>  <published_type>  (89) 
IC50

>  <activity_comment>  (89) 
None

$$$$

     RDKit          

 35 37  0  0  0  0  0  0  0  0999 V2000
    0.0000    0.0000    0.0000 C   0  0  0  0  0  0  0  0  0  0  0  0
    0.0000    0.0000    0.0000 N   0  0  0  0  0  0  0  0  0  0  0  0
    0.0000    0.0000    0.0000 C   0  0  0  0  0  0  0  0  0  0  0  0
    0.0000    0.0000    0.0000 C   0  0  0  0  0  0  0  0  0  0  0  0
    0.0000    0.0000    0.0000 N   0  0  0  0  0  0  0  0  0  0  0  0
    0.0000    0.0000    0.0000 C   0  0  0  0  0  0  0  0  0  0  0  0
    0.0000    0.0000    0.0000 N   0  0  0  0  0  0  0  0  0  0  0  0
    0.0000    0.0000    0.0000 C   0  0  0  0  0  0  0  0  0  0  0  0
    0.0000    0.0000    0.0000 C   0  0  0  0  0  0  0  0  0  0  0  0
    0.0000    0.0000    0.0000 C   0  0  0  0  0  0  0  0  0  0  0  0
    0.0000    0.0000    0.0000 C   0  0  0  0  0  0  0  0  0  0  0  0
    0.0000    0.0000    0.0000 C   0  0  0  0  0  0  0  0  0  0  0  0
    0.0000    0.0000    0.0000 N   0  0  0  0  0  0  0  0  0  0  0  0
    0.0000    0.0000    0.0000 C   0  0  0  0  0  0  0  0  0  0  0  0
    0.0000    0.0000    0.0000 O   0  0  0  0  0  0  0  0  0  0  0  0
    0.0000    0.0000    0.0000 C   0  0  0  0  0  0  0  0  0  0  0  0
    0.0000    0.0000    0.0000 C   0  0  0  0  0  0  0  0  0  0  0  0
    0.0000    0.0000    0.0000 C   0  0  0  0  0  0  0  0  0  0  0  0
    0.0000    0.0000    0.0000 C   0  0  0  0  0  0  0  0  0  0  0  0
    0.0000    0.0000    0.0000 C   0  0  0  0  0  0  0  0  0  0  0  0
    0.0000    0.0000    0.0000 C   0  0  0  0  0  0  0  0  0  0  0  0
    0.0000    0.0000    0.0000 C   0  0  0  0  0  0  0  0  0  0  0  0
    0.0000    0.0000    0.0000 F   0  0  0  0  0  0  0  0  0  0  0  0
    0.0000    0.0000    0.0000 F   0  0  0  0  0  0  0  0  0  0  0  0
    0.0000    0.0000    0.0000 F   0  0  0  0  0  0  0  0  0  0  0  0
    0.0000    0.0000    0.0000 C   0  0  0  0  0  0  0  0  0  0  0  0
    0.0000    0.0000    0.0000 F   0  0  0  0  0  0  0  0  0  0  0  0
    0.0000    0.0000    0.0000 F   0  0  0  0  0  0  0  0  0  0  0  0
    0.0000    0.0000    0.0000 F   0  0  0  0  0  0  0  0  0  0  0  0
    0.0000    0.0000    0.0000 C   0  0  0  0  0  0  0  0  0  0  0  0
    0.0000    0.0000    0.0000 C   0  0  0  0  0  0  0  0  0  0  0  0
    0.0000    0.0000    0.0000 N   0  0  0  0  0  0  0  0  0  0  0  0
    0.0000    0.0000    0.0000 C   0  0  0  0  0  0  0  0  0  0  0  0
    0.0000    0.0000    0.0000 C   0  0  0  0  0  0  0  0  0  0  0  0
    0.0000    0.0000    0.0000 C   0  0  0  0  0  0  0  0  0  0  0  0
  1  2  1  0
  2  3  1  0
  2  4  1  0
  4  5  2  0
  5  6  1  0
  6  7  1  0
  7  8  1  0
  8  9  1  0
  9 10  1  0
 10 11  1  0
 11 12  1  0
 12 13  1  0
 13 14  1  0
 14 15  2  0
 14 16  1  0
 16 17  2  0
 17 18  1  0
 18 19  2  0
 19 20  1  0
 20 21  2  0
 20 22  1  0
 22 23  1  0
 22 24  1  0
 22 25  1  0
 18 26  1  0
 26 27  1  0
 26 28  1  0
 26 29  1  0
 11 30  1  0
 30 31  1  0
  6 32  2  0
 32 33  1  0
 33 34  2  0
 34 35  1  0
 34  4  1  0
 31  8  1  0
 21 16  1  0
M  END
>  <pIC50>  (90) 
6.51

>  <ChEMBL_ID>  (90) 
CHEMBL566075

>  <document_journal>  (90) 
Bioorg. Med. Chem. Lett.

>  <bao_endpoint>  (90) 
BAO_0000190

>  <potential_duplicate>  (90) 
False

>  <uo_units>  (90) 
UO_0000065

>  <canonical_smiles>  (90) 
CN(C)c1nc(N[C@@H]2CC[C@H](CNC(=O)c3cc(cc(c3)C(F)(F)F)C(F)(F)F)CC2)ncc1C

>  <parent_molecule_chembl_id>  (90) 
CHEMBL566075

>  <assay_type>  (90) 
B

>  <src_id>  (90) 
1

>  <ligand_efficiency>  (90) 
{u'le': u'0.25', u'bei': u'12.93', u'sei': u'9.28', u'lle': u'0.71'}

>  <standard_flag>  (90) 
True

>  <molecule_chembl_id>  (90) 
CHEMBL566075

>  <target_organism>  (90) 
Homo sapiens

>  <standard_units>  (90) 
nM

>  <record_id>  (90) 
855655

>  <document_chembl_id>  (90) 
CHEMBL1156067

>  <bao_format>  (90) 
BAO_0000357

>  <data_validity_description>  (90) 
None

>  <activity_id>  (90) 
3019206

>  <standard_type>  (90) 
IC50

>  <target_chembl_id>  (90) 
CHEMBL1867

>  <data_validity_comment>  (90) 
None

>  <published_value>  (90) 
0.31

>  <document_year>  (90) 
2009

>  <target_pref_name>  (90) 
Alpha-2a adrenergic receptor

>  <assay_chembl_id>  (90) 
CHEMBL1037060

>  <standard_relation>  (90) 
=

>  <assay_description>  (90) 
Displacement of [3H]MK-912 from human adrenergic alpha2A receptor

>  <published_relation>  (90) 
=

>  <standard_value>  (90) 
310

>  <qudt_units>  (90) 
http://www.openphacts.org/units/Nanomolar

>  <target_tax_id>  (90) 
9606

>  <bao_label>  (90) 
single protein format

>  <published_units>  (90) 
uM

>  <pchembl_value>  (90) 
6.51

>  <published_type>  (90) 
IC50

>  <activity_comment>  (90) 
None

$$$$

     RDKit          

 27 31  0  0  0  0  0  0  0  0999 V2000
    0.0000    0.0000    0.0000 Cl  0  0  0  0  0  0  0  0  0  0  0  0
    0.0000    0.0000    0.0000 C   0  0  0  0  0  0  0  0  0  0  0  0
    0.0000    0.0000    0.0000 N   0  0  0  0  0  0  0  0  0  0  0  0
    0.0000    0.0000    0.0000 C   0  0  0  0  0  0  0  0  0  0  0  0
    0.0000    0.0000    0.0000 S   0  0  0  0  0  0  0  0  0  0  0  0
    0.0000    0.0000    0.0000 C   0  0  0  0  0  0  0  0  0  0  0  0
    0.0000    0.0000    0.0000 C   0  0  0  0  0  0  0  0  0  0  0  0
    0.0000    0.0000    0.0000 N   0  0  0  0  0  0  0  0  0  0  0  0
    0.0000    0.0000    0.0000 C   0  0  0  0  0  0  0  0  0  0  0  0
    0.0000    0.0000    0.0000 S   0  0  0  0  0  0  0  0  0  0  0  0
    0.0000    0.0000    0.0000 O   0  0  0  0  0  0  0  0  0  0  0  0
    0.0000    0.0000    0.0000 O   0  0  0  0  0  0  0  0  0  0  0  0
    0.0000    0.0000    0.0000 N   0  0  0  0  0  0  0  0  0  0  0  0
    0.0000    0.0000    0.0000 C   0  0  0  0  0  0  0  0  0  0  0  0
    0.0000    0.0000    0.0000 C   0  0  0  0  0  0  0  0  0  0  0  0
    0.0000    0.0000    0.0000 C   0  0  0  0  0  0  0  0  0  0  0  0
    0.0000    0.0000    0.0000 C   0  0  0  0  0  0  0  0  0  0  0  0
    0.0000    0.0000    0.0000 C   0  0  0  0  0  0  0  0  0  0  0  0
    0.0000    0.0000    0.0000 C   0  0  0  0  0  0  0  0  0  0  0  0
    0.0000    0.0000    0.0000 C   0  0  0  0  0  0  0  0  0  0  0  0
    0.0000    0.0000    0.0000 C   0  0  0  0  0  0  0  0  0  0  0  0
    0.0000    0.0000    0.0000 C   0  0  0  0  0  0  0  0  0  0  0  0
    0.0000    0.0000    0.0000 C   0  0  0  0  0  0  0  0  0  0  0  0
    0.0000    0.0000    0.0000 N   0  0  0  0  0  0  0  0  0  0  0  0
    0.0000    0.0000    0.0000 C   0  0  0  0  0  0  0  0  0  0  0  0
    0.0000    0.0000    0.0000 C   0  0  0  0  0  0  0  0  0  0  0  0
    0.0000    0.0000    0.0000 C   0  0  0  0  0  0  0  0  0  0  0  0
  1  2  1  0
  2  3  1  0
  3  4  2  0
  4  5  1  0
  5  6  1  0
  6  7  2  0
  7  8  1  0
  8  9  1  0
  9 10  1  0
 10 11  2  0
 10 12  2  0
 10 13  1  0
 13 14  1  0
 14 15  2  0
 15 16  1  0
 16 17  2  0
 17 18  1  0
 18 19  1  0
 19 20  2  0
 20 21  1  0
 21 22  1  0
 22 23  1  0
 23 24  1  0
 24 25  1  0
 20 26  1  0
 26 27  2  0
  9  2  2  0
  8  4  1  0
 27 14  1  0
 26 17  1  0
 25 21  1  0
M  END
>  <pIC50>  (91) 
6.05

>  <ChEMBL_ID>  (91) 
CHEMBL605938

>  <document_journal>  (91) 
Bioorg. Med. Chem.

>  <bao_endpoint>  (91) 
BAO_0000190

>  <potential_duplicate>  (91) 
False

>  <uo_units>  (91) 
UO_0000065

>  <canonical_smiles>  (91) 
Clc1nc2sccn2c1S(=O)(=O)Nc3ccc4CC=C(C5CCNC5)c4c3

>  <parent_molecule_chembl_id>  (91) 
CHEMBL605938

>  <assay_type>  (91) 
B

>  <src_id>  (91) 
1

>  <ligand_efficiency>  (91) 
{u'le': u'0.31', u'bei': u'14.37', u'sei': u'5.4', u'lle': u'3.51'}

>  <standard_flag>  (91) 
True

>  <molecule_chembl_id>  (91) 
CHEMBL605938

>  <target_organism>  (91) 
Homo sapiens

>  <standard_units>  (91) 
nM

>  <record_id>  (91) 
876645

>  <document_chembl_id>  (91) 
CHEMBL1152611

>  <bao_format>  (91) 
BAO_0000357

>  <data_validity_description>  (91) 
None

>  <activity_id>  (91) 
3057471

>  <standard_type>  (91) 
IC50

>  <target_chembl_id>  (91) 
CHEMBL1867

>  <data_validity_comment>  (91) 
None

>  <published_value>  (91) 
891

>  <document_year>  (91) 
2009

>  <target_pref_name>  (91) 
Alpha-2a adrenergic receptor

>  <assay_chembl_id>  (91) 
CHEMBL1071169

>  <standard_relation>  (91) 
=

>  <assay_description>  (91) 
Inhibition of human alpha-2a adrenergic receptor

>  <published_relation>  (91) 
=

>  <standard_value>  (91) 
891

>  <qudt_units>  (91) 
http://www.openphacts.org/units/Nanomolar

>  <target_tax_id>  (91) 
9606

>  <bao_label>  (91) 
single protein format

>  <published_units>  (91) 
nM

>  <pchembl_value>  (91) 
6.05

>  <published_type>  (91) 
IC50

>  <activity_comment>  (91) 
None

$$$$

     RDKit          

 30 34  0  0  0  0  0  0  0  0999 V2000
    0.0000    0.0000    0.0000 C   0  0  0  0  0  0  0  0  0  0  0  0
    0.0000    0.0000    0.0000 N   0  0  0  0  0  0  0  0  0  0  0  0
    0.0000    0.0000    0.0000 C   0  0  0  0  0  0  0  0  0  0  0  0
    0.0000    0.0000    0.0000 C   0  0  0  0  0  0  0  0  0  0  0  0
    0.0000    0.0000    0.0000 C   0  0  0  0  0  0  0  0  0  0  0  0
    0.0000    0.0000    0.0000 C   0  0  0  0  0  0  0  0  0  0  0  0
    0.0000    0.0000    0.0000 C   0  0  0  0  0  0  0  0  0  0  0  0
    0.0000    0.0000    0.0000 C   0  0  0  0  0  0  0  0  0  0  0  0
    0.0000    0.0000    0.0000 C   0  0  0  0  0  0  0  0  0  0  0  0
    0.0000    0.0000    0.0000 C   0  0  0  0  0  0  0  0  0  0  0  0
    0.0000    0.0000    0.0000 C   0  0  0  0  0  0  0  0  0  0  0  0
    0.0000    0.0000    0.0000 C   0  0  0  0  0  0  0  0  0  0  0  0
    0.0000    0.0000    0.0000 C   0  0  0  0  0  0  0  0  0  0  0  0
    0.0000    0.0000    0.0000 C   0  0  0  0  0  0  0  0  0  0  0  0
    0.0000    0.0000    0.0000 C   0  0  0  0  0  0  0  0  0  0  0  0
    0.0000    0.0000    0.0000 N   0  0  0  0  0  0  0  0  0  0  0  0
    0.0000    0.0000    0.0000 S   0  0  0  0  0  0  0  0  0  0  0  0
    0.0000    0.0000    0.0000 O   0  0  0  0  0  0  0  0  0  0  0  0
    0.0000    0.0000    0.0000 O   0  0  0  0  0  0  0  0  0  0  0  0
    0.0000    0.0000    0.0000 C   0  0  0  0  0  0  0  0  0  0  0  0
    0.0000    0.0000    0.0000 C   0  0  0  0  0  0  0  0  0  0  0  0
    0.0000    0.0000    0.0000 Cl  0  0  0  0  0  0  0  0  0  0  0  0
    0.0000    0.0000    0.0000 N   0  0  0  0  0  0  0  0  0  0  0  0
    0.0000    0.0000    0.0000 C   0  0  0  0  0  0  0  0  0  0  0  0
    0.0000    0.0000    0.0000 S   0  0  0  0  0  0  0  0  0  0  0  0
    0.0000    0.0000    0.0000 C   0  0  0  0  0  0  0  0  0  0  0  0
    0.0000    0.0000    0.0000 C   0  0  0  0  0  0  0  0  0  0  0  0
    0.0000    0.0000    0.0000 N   0  0  0  0  0  0  0  0  0  0  0  0
    0.0000    0.0000    0.0000 C   0  0  0  0  0  0  0  0  0  0  0  0
    0.0000    0.0000    0.0000 C   0  0  0  0  0  0  0  0  0  0  0  0
  1  2  1  0
  2  3  1  0
  3  4  1  0
  4  5  1  0
  5  6  1  0
  6  7  1  0
  6  8  1  0
  8  9  2  0
  9 10  1  0
  9 11  1  0
 11 12  1  0
 12 13  2  0
 13 14  1  0
 14 15  2  0
 15 16  1  0
 16 17  1  0
 17 18  2  0
 17 19  2  0
 17 20  1  0
 20 21  2  0
 21 22  1  0
 21 23  1  0
 23 24  2  0
 24 25  1  0
 25 26  1  0
 26 27  2  0
 27 28  1  0
 15 29  1  0
 29 30  2  0
  7  2  1  0
 30  8  1  0
 30 12  1  0
 28 20  1  0
 28 24  1  0
M  END
>  <pIC50>  (92) 
5.92

>  <ChEMBL_ID>  (92) 
CHEMBL593889

>  <document_journal>  (92) 
Bioorg. Med. Chem.

>  <bao_endpoint>  (92) 
BAO_0000190

>  <potential_duplicate>  (92) 
False

>  <uo_units>  (92) 
UO_0000065

>  <canonical_smiles>  (92) 
CN1CCCC(C1)C2=C(C)Cc3ccc(NS(=O)(=O)c4c(Cl)nc5sccn45)cc23

>  <parent_molecule_chembl_id>  (92) 
CHEMBL593889

>  <assay_type>  (92) 
B

>  <src_id>  (92) 
1

>  <ligand_efficiency>  (92) 
{u'le': u'0.27', u'bei': u'12.78', u'sei': u'5.73', u'lle': u'1.94'}

>  <standard_flag>  (92) 
True

>  <molecule_chembl_id>  (92) 
CHEMBL593889

>  <target_organism>  (92) 
Homo sapiens

>  <standard_units>  (92) 
nM

>  <record_id>  (92) 
876462

>  <document_chembl_id>  (92) 
CHEMBL1152611

>  <bao_format>  (92) 
BAO_0000357

>  <data_validity_description>  (92) 
None

>  <activity_id>  (92) 
3057476

>  <standard_type>  (92) 
IC50

>  <target_chembl_id>  (92) 
CHEMBL1867

>  <data_validity_comment>  (92) 
None

>  <published_value>  (92) 
1213

>  <document_year>  (92) 
2009

>  <target_pref_name>  (92) 
Alpha-2a adrenergic receptor

>  <assay_chembl_id>  (92) 
CHEMBL1071169

>  <standard_relation>  (92) 
=

>  <assay_description>  (92) 
Inhibition of human alpha-2a adrenergic receptor

>  <published_relation>  (92) 
=

>  <standard_value>  (92) 
1213

>  <qudt_units>  (92) 
http://www.openphacts.org/units/Nanomolar

>  <target_tax_id>  (92) 
9606

>  <bao_label>  (92) 
single protein format

>  <published_units>  (92) 
nM

>  <pchembl_value>  (92) 
5.92

>  <published_type>  (92) 
IC50

>  <activity_comment>  (92) 
None

$$$$

     RDKit          

 27 29  0  0  0  0  0  0  0  0999 V2000
    0.0000    0.0000    0.0000 F   0  0  0  0  0  0  0  0  0  0  0  0
    0.0000    0.0000    0.0000 C   0  0  0  0  0  0  0  0  0  0  0  0
    0.0000    0.0000    0.0000 C   0  0  0  0  0  0  0  0  0  0  0  0
    0.0000    0.0000    0.0000 C   0  0  0  0  0  0  0  0  0  0  0  0
    0.0000    0.0000    0.0000 C   0  0  0  0  0  0  0  0  0  0  0  0
    0.0000    0.0000    0.0000 C   0  0  0  0  0  0  0  0  0  0  0  0
    0.0000    0.0000    0.0000 C   0  0  0  0  0  0  0  0  0  0  0  0
    0.0000    0.0000    0.0000 C   0  0  0  0  0  0  0  0  0  0  0  0
    0.0000    0.0000    0.0000 C   0  0  0  0  0  0  0  0  0  0  0  0
    0.0000    0.0000    0.0000 C   0  0  0  0  0  0  0  0  0  0  0  0
    0.0000    0.0000    0.0000 C   0  0  0  0  0  0  0  0  0  0  0  0
    0.0000    0.0000    0.0000 N   0  0  0  0  0  0  0  0  0  0  0  0
    0.0000    0.0000    0.0000 C   0  0  0  0  0  0  0  0  0  0  0  0
    0.0000    0.0000    0.0000 O   0  0  0  0  0  0  0  0  0  0  0  0
    0.0000    0.0000    0.0000 N   0  0  0  0  0  0  0  0  0  0  0  0
    0.0000    0.0000    0.0000 C   0  0  0  0  0  0  0  0  0  0  0  0
    0.0000    0.0000    0.0000 C   0  0  0  0  0  0  0  0  0  0  0  0
    0.0000    0.0000    0.0000 C   0  0  0  0  0  0  0  0  0  0  0  0
    0.0000    0.0000    0.0000 C   0  0  0  0  0  0  0  0  0  0  0  0
    0.0000    0.0000    0.0000 N   0  0  0  0  0  0  0  0  0  0  0  0
    0.0000    0.0000    0.0000 C   0  0  0  0  0  0  0  0  0  0  0  0
    0.0000    0.0000    0.0000 C   0  0  0  0  0  0  0  0  0  0  0  0
    0.0000    0.0000    0.0000 C   0  0  0  0  0  0  0  0  0  0  0  0
    0.0000    0.0000    0.0000 C   0  0  0  0  0  0  0  0  0  0  0  0
    0.0000    0.0000    0.0000 C   0  0  0  0  0  0  0  0  0  0  0  0
    0.0000    0.0000    0.0000 C   0  0  0  0  0  0  0  0  0  0  0  0
    0.0000    0.0000    0.0000 N   0  0  0  0  0  0  0  0  0  0  0  0
  1  2  1  0
  2  3  2  0
  3  4  1  0
  4  5  2  0
  5  6  1  0
  6  7  2  0
  5  8  1  0
  8  9  2  0
  9 10  1  0
 10 11  2  0
 11 12  1  0
 12 13  1  0
 13 14  2  0
 13 15  1  0
 15 16  1  0
 16 17  1  0
 17 18  1  0
 18 19  1  0
 19 20  1  0
 20 21  1  0
 21 22  1  0
 22 23  1  0
 23 24  1  0
 24 25  1  0
 11 26  1  0
 26 27  2  0
  7  2  1  0
 27  8  1  0
 25 20  1  0
M  END
>  <pIC50>  (93) 
4.46

>  <ChEMBL_ID>  (93) 
CHEMBL1083787

>  <document_journal>  (93) 
J. Med. Chem.

>  <bao_endpoint>  (93) 
BAO_0000190

>  <potential_duplicate>  (93) 
False

>  <uo_units>  (93) 
UO_0000065

>  <canonical_smiles>  (93) 
Fc1ccc(cc1)c2ccc(NC(=O)NCCCCN3CCCCC3)cn2

>  <parent_molecule_chembl_id>  (93) 
CHEMBL1083787

>  <assay_type>  (93) 
B

>  <src_id>  (93) 
1

>  <ligand_efficiency>  (93) 
{u'le': u'0.23', u'bei': u'12.03', u'sei': u'7.78', u'lle': u'0.81'}

>  <standard_flag>  (93) 
True

>  <molecule_chembl_id>  (93) 
CHEMBL1083787

>  <target_organism>  (93) 
Homo sapiens

>  <standard_units>  (93) 
nM

>  <record_id>  (93) 
915618

>  <document_chembl_id>  (93) 
CHEMBL1155527

>  <bao_format>  (93) 
BAO_0000357

>  <data_validity_description>  (93) 
None

>  <activity_id>  (93) 
3307870

>  <standard_type>  (93) 
IC50

>  <target_chembl_id>  (93) 
CHEMBL1867

>  <data_validity_comment>  (93) 
None

>  <published_value>  (93) 
35

>  <document_year>  (93) 
2010

>  <target_pref_name>  (93) 
Alpha-2a adrenergic receptor

>  <assay_chembl_id>  (93) 
CHEMBL1118797

>  <standard_relation>  (93) 
=

>  <assay_description>  (93) 
Binding affinity to adrenergic alpha2A receptor

>  <published_relation>  (93) 
=

>  <standard_value>  (93) 
35000

>  <qudt_units>  (93) 
http://www.openphacts.org/units/Nanomolar

>  <target_tax_id>  (93) 
9606

>  <bao_label>  (93) 
single protein format

>  <published_units>  (93) 
uM

>  <pchembl_value>  (93) 
4.46

>  <published_type>  (93) 
IC50

>  <activity_comment>  (93) 
None

$$$$

     RDKit          

 30 31  0  0  0  0  0  0  0  0999 V2000
    0.0000    0.0000    0.0000 C   0  0  0  0  0  0  0  0  0  0  0  0
    0.0000    0.0000    0.0000 C   0  0  0  0  0  0  0  0  0  0  0  0
    0.0000    0.0000    0.0000 C   0  0  0  0  0  0  0  0  0  0  0  0
    0.0000    0.0000    0.0000 C   0  0  0  0  0  0  0  0  0  0  0  0
    0.0000    0.0000    0.0000 C   0  0  0  0  0  0  0  0  0  0  0  0
    0.0000    0.0000    0.0000 C   0  0  0  0  0  0  0  0  0  0  0  0
    0.0000    0.0000    0.0000 C   0  0  0  0  0  0  0  0  0  0  0  0
    0.0000    0.0000    0.0000 C   0  0  0  0  0  0  0  0  0  0  0  0
    0.0000    0.0000    0.0000 C   0  0  0  0  0  0  0  0  0  0  0  0
    0.0000    0.0000    0.0000 C   0  0  0  0  0  0  0  0  0  0  0  0
    0.0000    0.0000    0.0000 C   0  0  0  0  0  0  0  0  0  0  0  0
    0.0000    0.0000    0.0000 C   0  0  0  0  0  0  0  0  0  0  0  0
    0.0000    0.0000    0.0000 O   0  0  0  0  0  0  0  0  0  0  0  0
    0.0000    0.0000    0.0000 C   0  0  0  0  0  0  0  0  0  0  0  0
    0.0000    0.0000    0.0000 C   0  0  0  0  0  0  0  0  0  0  0  0
    0.0000    0.0000    0.0000 O   0  0  0  0  0  0  0  0  0  0  0  0
    0.0000    0.0000    0.0000 C   0  0  0  0  0  0  0  0  0  0  0  0
    0.0000    0.0000    0.0000 C   0  0  0  0  0  0  0  0  0  0  0  0
    0.0000    0.0000    0.0000 N   0  0  0  0  0  0  0  0  0  0  0  0
    0.0000    0.0000    0.0000 C   0  0  0  0  0  0  0  0  0  0  0  0
    0.0000    0.0000    0.0000 C   0  0  0  0  0  0  0  0  0  0  0  0
    0.0000    0.0000    0.0000 C   0  0  0  0  0  0  0  0  0  0  0  0
    0.0000    0.0000    0.0000 C   0  0  0  0  0  0  0  0  0  0  0  0
    0.0000    0.0000    0.0000 C   0  0  0  0  0  0  0  0  0  0  0  0
    0.0000    0.0000    0.0000 C   0  0  0  0  0  0  0  0  0  0  0  0
    0.0000    0.0000    0.0000 C   0  0  0  0  0  0  0  0  0  0  0  0
    0.0000    0.0000    0.0000 C   0  0  0  0  0  0  0  0  0  0  0  0
    0.0000    0.0000    0.0000 C   0  0  0  0  0  0  0  0  0  0  0  0
    0.0000    0.0000    0.0000 C   0  0  0  0  0  0  0  0  0  0  0  0
    0.0000    0.0000    0.0000 C   0  0  0  0  0  0  0  0  0  0  0  0
  1  2  1  0
  2  3  1  0
  2  4  1  0
  2  5  1  0
  5  6  1  0
  6  7  1  0
  6  8  1  0
  6  9  1  0
  9 10  2  0
 10 11  1  0
 11 12  2  0
 12 13  1  0
 13 14  1  0
 14 15  1  0
 15 16  1  0
 16 17  1  0
 17 18  1  0
 18 19  1  0
 19 20  1  0
 19 21  1  0
 19 22  1  0
 22 23  1  0
 23 24  2  0
 24 25  1  0
 25 26  2  0
 26 27  1  0
 27 28  2  0
 12 29  1  0
 29 30  2  0
 30  9  1  0
 28 23  1  0
M  CHG  1  19   1
M  END
>  <pIC50>  (94) 
5.51

>  <ChEMBL_ID>  (94) 
CHEMBL221753

>  <document_journal>  (94) 
None

>  <bao_endpoint>  (94) 
BAO_0000190

>  <potential_duplicate>  (94) 
False

>  <uo_units>  (94) 
UO_0000065

>  <canonical_smiles>  (94) 
[Cl-].CC(C)(C)CC(C)(C)c1ccc(OCCOCC[N+](C)(C)Cc2ccccc2)cc1

>  <parent_molecule_chembl_id>  (94) 
CHEMBL1182210

>  <assay_type>  (94) 
B

>  <src_id>  (94) 
15

>  <ligand_efficiency>  (94) 
{u'le': u'0.25', u'bei': u'13.35', u'sei': u'29.84', u'lle': u'0.69'}

>  <standard_flag>  (94) 
True

>  <molecule_chembl_id>  (94) 
CHEMBL221753

>  <target_organism>  (94) 
Homo sapiens

>  <standard_units>  (94) 
nM

>  <record_id>  (94) 
1539535

>  <document_chembl_id>  (94) 
CHEMBL1909046

>  <bao_format>  (94) 
BAO_0000249

>  <data_validity_description>  (94) 
None

>  <activity_id>  (94) 
7600667

>  <standard_type>  (94) 
IC50

>  <target_chembl_id>  (94) 
CHEMBL1867

>  <data_validity_comment>  (94) 
None

>  <published_value>  (94) 
3.102

>  <document_year>  (94) 
None

>  <target_pref_name>  (94) 
Alpha-2a adrenergic receptor

>  <assay_chembl_id>  (94) 
CHEMBL1909088

>  <standard_relation>  (94) 
=

>  <assay_description>  (94) 
DRUGMATRIX: Alpha-2A adrenergic receptor radioligand binding (ligand: MK-912)

>  <published_relation>  (94) 
=

>  <standard_value>  (94) 
3102

>  <qudt_units>  (94) 
http://www.openphacts.org/units/Nanomolar

>  <target_tax_id>  (94) 
9606

>  <bao_label>  (94) 
cell membrane format

>  <published_units>  (94) 
uM

>  <pchembl_value>  (94) 
5.51

>  <published_type>  (94) 
IC50

>  <activity_comment>  (94) 
None

$$$$

     RDKit          

 43 49  0  0  0  0  0  0  0  0999 V2000
    0.0000    0.0000    0.0000 C   0  0  0  0  0  0  0  0  0  0  0  0
    0.0000    0.0000    0.0000 C   0  0  0  0  0  0  0  0  0  0  0  0
    0.0000    0.0000    0.0000 C   0  0  0  0  0  0  0  0  0  0  0  0
    0.0000    0.0000    0.0000 C   0  0  0  0  0  0  0  0  0  0  0  0
    0.0000    0.0000    0.0000 C   0  0  0  0  0  0  0  0  0  0  0  0
    0.0000    0.0000    0.0000 N   0  0  0  0  0  0  0  0  0  0  0  0
    0.0000    0.0000    0.0000 C   0  0  0  0  0  0  0  0  0  0  0  0
    0.0000    0.0000    0.0000 O   0  0  0  0  0  0  0  0  0  0  0  0
    0.0000    0.0000    0.0000 C   0  0  0  0  0  0  0  0  0  0  0  0
    0.0000    0.0000    0.0000 N   0  0  0  0  0  0  0  0  0  0  0  0
    0.0000    0.0000    0.0000 C   0  0  0  0  0  0  0  0  0  0  0  0
    0.0000    0.0000    0.0000 O   0  0  0  0  0  0  0  0  0  0  0  0
    0.0000    0.0000    0.0000 C   0  0  0  0  0  0  0  0  0  0  0  0
    0.0000    0.0000    0.0000 C   0  0  0  0  0  0  0  0  0  0  0  0
    0.0000    0.0000    0.0000 N   0  0  0  0  0  0  0  0  0  0  0  0
    0.0000    0.0000    0.0000 C   0  0  0  0  0  0  0  0  0  0  0  0
    0.0000    0.0000    0.0000 C   0  0  0  0  0  0  0  0  0  0  0  0
    0.0000    0.0000    0.0000 C   0  0  0  0  0  0  0  0  0  0  0  0
    0.0000    0.0000    0.0000 C   0  0  0  0  0  0  0  0  0  0  0  0
    0.0000    0.0000    0.0000 C   0  0  0  0  0  0  0  0  0  0  0  0
    0.0000    0.0000    0.0000 Br  0  0  0  0  0  0  0  0  0  0  0  0
    0.0000    0.0000    0.0000 N   0  0  0  0  0  0  0  0  0  0  0  0
    0.0000    0.0000    0.0000 C   0  0  0  0  0  0  0  0  0  0  0  0
    0.0000    0.0000    0.0000 C   0  0  0  0  0  0  0  0  0  0  0  0
    0.0000    0.0000    0.0000 C   0  0  0  0  0  0  0  0  0  0  0  0
    0.0000    0.0000    0.0000 C   0  0  0  0  0  0  0  0  0  0  0  0
    0.0000    0.0000    0.0000 C   0  0  0  0  0  0  0  0  0  0  0  0
    0.0000    0.0000    0.0000 C   0  0  0  0  0  0  0  0  0  0  0  0
    0.0000    0.0000    0.0000 C   0  0  0  0  0  0  0  0  0  0  0  0
    0.0000    0.0000    0.0000 C   0  0  0  0  0  0  0  0  0  0  0  0
    0.0000    0.0000    0.0000 O   0  0  0  0  0  0  0  0  0  0  0  0
    0.0000    0.0000    0.0000 C   0  0  0  0  0  0  0  0  0  0  0  0
    0.0000    0.0000    0.0000 O   0  0  0  0  0  0  0  0  0  0  0  0
    0.0000    0.0000    0.0000 C   0  0  0  0  0  0  0  0  0  0  0  0
    0.0000    0.0000    0.0000 C   0  0  0  0  0  0  0  0  0  0  0  0
    0.0000    0.0000    0.0000 C   0  0  0  0  0  0  0  0  0  0  0  0
    0.0000    0.0000    0.0000 C   0  0  0  0  0  0  0  0  0  0  0  0
    0.0000    0.0000    0.0000 N   0  0  0  0  0  0  0  0  0  0  0  0
    0.0000    0.0000    0.0000 C   0  0  0  0  0  0  0  0  0  0  0  0
    0.0000    0.0000    0.0000 O   0  0  0  0  0  0  0  0  0  0  0  0
    0.0000    0.0000    0.0000 C   0  0  0  0  0  0  0  0  0  0  0  0
    0.0000    0.0000    0.0000 C   0  0  0  0  0  0  0  0  0  0  0  0
    0.0000    0.0000    0.0000 C   0  0  0  0  0  0  0  0  0  0  0  0
  1  2  1  0
  2  3  1  0
  2  4  1  0
  4  5  1  0
  5  6  1  0
  6  7  1  0
  7  8  2  0
  7  9  1  0
  9 10  1  0
 10 11  1  0
 11 12  2  0
 11 13  1  0
 13 14  1  0
 14 15  1  0
 15 16  1  0
 15 17  1  0
 17 18  1  0
 18 19  1  0
 19 20  2  0
 20 21  1  0
 20 22  1  0
 22 23  1  0
 23 24  2  0
 24 25  1  0
 25 26  2  0
 26 27  1  0
 27 28  1  0
 28 29  2  0
 27 30  2  0
  9 31  1  0
 31 32  1  0
 32 33  1  0
 32 34  1  0
 34 35  1  0
 35 36  1  0
 36 37  1  0
 37 38  1  0
 38 39  1  0
 39 40  2  0
  9 41  1  0
 41 42  1  0
 41 43  1  0
 39  5  1  0
 32  6  1  0
 29 13  1  0
 28 17  1  0
 30 19  1  0
 30 23  1  0
 38 34  1  0
M  END
>  <pIC50>  (95) 
7.82

>  <ChEMBL_ID>  (95) 
CHEMBL493

>  <document_journal>  (95) 
None

>  <bao_endpoint>  (95) 
BAO_0000190

>  <potential_duplicate>  (95) 
False

>  <uo_units>  (95) 
UO_0000065

>  <canonical_smiles>  (95) 
CC(C)C[C@@H]1N2C(=O)[C@](NC(=O)[C@H]3CN(C)[C@@H]4Cc5c(Br)[nH]c6cccc(C4=C3)c56)(O[C@@]2(O)[C@@H]7CCCN7C1=O)C(C)C

>  <parent_molecule_chembl_id>  (95) 
CHEMBL493

>  <assay_type>  (95) 
B

>  <src_id>  (95) 
15

>  <ligand_efficiency>  (95) 
{u'le': u'0.25', u'bei': u'11.95', u'sei': u'6.62', u'lle': u'3.46'}

>  <standard_flag>  (95) 
True

>  <molecule_chembl_id>  (95) 
CHEMBL493

>  <target_organism>  (95) 
Homo sapiens

>  <standard_units>  (95) 
nM

>  <record_id>  (95) 
1539564

>  <document_chembl_id>  (95) 
CHEMBL1909046

>  <bao_format>  (95) 
BAO_0000249

>  <data_validity_description>  (95) 
None

>  <activity_id>  (95) 
7612480

>  <standard_type>  (95) 
IC50

>  <target_chembl_id>  (95) 
CHEMBL1867

>  <data_validity_comment>  (95) 
None

>  <published_value>  (95) 
0.015

>  <document_year>  (95) 
None

>  <target_pref_name>  (95) 
Alpha-2a adrenergic receptor

>  <assay_chembl_id>  (95) 
CHEMBL1909088

>  <standard_relation>  (95) 
=

>  <assay_description>  (95) 
DRUGMATRIX: Alpha-2A adrenergic receptor radioligand binding (ligand: MK-912)

>  <published_relation>  (95) 
=

>  <standard_value>  (95) 
15

>  <qudt_units>  (95) 
http://www.openphacts.org/units/Nanomolar

>  <target_tax_id>  (95) 
9606

>  <bao_label>  (95) 
cell membrane format

>  <published_units>  (95) 
uM

>  <pchembl_value>  (95) 
7.82

>  <published_type>  (95) 
IC50

>  <activity_comment>  (95) 
None

$$$$

     RDKit          

 24 26  0  0  0  0  0  0  0  0999 V2000
    0.0000    0.0000    0.0000 C   0  0  0  0  0  0  0  0  0  0  0  0
    0.0000    0.0000    0.0000 N   0  0  0  0  0  0  0  0  0  0  0  0
    0.0000    0.0000    0.0000 C   0  0  0  0  0  0  0  0  0  0  0  0
    0.0000    0.0000    0.0000 C   0  0  0  0  0  0  0  0  0  0  0  0
    0.0000    0.0000    0.0000 C   0  0  0  0  0  0  0  0  0  0  0  0
    0.0000    0.0000    0.0000 C   0  0  0  0  0  0  0  0  0  0  0  0
    0.0000    0.0000    0.0000 C   0  0  0  0  0  0  0  0  0  0  0  0
    0.0000    0.0000    0.0000 C   0  0  0  0  0  0  0  0  0  0  0  0
    0.0000    0.0000    0.0000 C   0  0  0  0  0  0  0  0  0  0  0  0
    0.0000    0.0000    0.0000 C   0  0  0  0  0  0  0  0  0  0  0  0
    0.0000    0.0000    0.0000 C   0  0  0  0  0  0  0  0  0  0  0  0
    0.0000    0.0000    0.0000 C   0  0  0  0  0  0  0  0  0  0  0  0
    0.0000    0.0000    0.0000 C   0  0  0  0  0  0  0  0  0  0  0  0
    0.0000    0.0000    0.0000 C   0  0  0  0  0  0  0  0  0  0  0  0
    0.0000    0.0000    0.0000 C   0  0  0  0  0  0  0  0  0  0  0  0
    0.0000    0.0000    0.0000 C   0  0  0  0  0  0  0  0  0  0  0  0
    0.0000    0.0000    0.0000 C   0  0  0  0  0  0  0  0  0  0  0  0
    0.0000    0.0000    0.0000 C   0  0  0  0  0  0  0  0  0  0  0  0
    0.0000    0.0000    0.0000 C   0  0  0  0  0  0  0  0  0  0  0  0
    0.0000    0.0000    0.0000 C   0  0  0  0  0  0  0  0  0  0  0  0
    0.0000    0.0000    0.0000 C   0  0  0  0  0  0  0  0  0  0  0  0
    0.0000    0.0000    0.0000 C   0  0  0  0  0  0  0  0  0  0  0  0
    0.0000    0.0000    0.0000 C   0  0  0  0  0  0  0  0  0  0  0  0
    0.0000    0.0000    0.0000 C   0  0  0  0  0  0  0  0  0  0  0  0
  1  2  1  0
  2  3  1  0
  3  4  1  0
  4  5  2  0
  5  6  1  0
  6  7  2  0
  7  8  1  0
  8  9  2  0
  7 10  1  0
 10 11  1  0
 10 12  1  0
 10 13  1  0
  2 14  1  0
 14 15  1  0
 15 16  2  0
 16 17  1  0
 17 18  2  0
 18 19  1  0
 19 20  2  0
 20 21  1  0
 21 22  2  0
 22 23  1  0
 23 24  2  0
  9  4  1  0
 24 15  1  0
 24 19  1  0
M  END
>  <pIC50>  (96) 
5.44

>  <ChEMBL_ID>  (96) 
CHEMBL990

>  <document_journal>  (96) 
None

>  <bao_endpoint>  (96) 
BAO_0000190

>  <potential_duplicate>  (96) 
False

>  <uo_units>  (96) 
UO_0000065

>  <canonical_smiles>  (96) 
CN(Cc1ccc(cc1)C(C)(C)C)Cc2cccc3ccccc23

>  <parent_molecule_chembl_id>  (96) 
CHEMBL990

>  <assay_type>  (96) 
B

>  <src_id>  (96) 
15

>  <ligand_efficiency>  (96) 
{u'le': u'0.31', u'bei': u'17.13', u'sei': u'167.85', u'lle': u'-0.36'}

>  <standard_flag>  (96) 
True

>  <molecule_chembl_id>  (96) 
CHEMBL990

>  <target_organism>  (96) 
Homo sapiens

>  <standard_units>  (96) 
nM

>  <record_id>  (96) 
1539572

>  <document_chembl_id>  (96) 
CHEMBL1909046

>  <bao_format>  (96) 
BAO_0000249

>  <data_validity_description>  (96) 
None

>  <activity_id>  (96) 
7612587

>  <standard_type>  (96) 
IC50

>  <target_chembl_id>  (96) 
CHEMBL1867

>  <data_validity_comment>  (96) 
None

>  <published_value>  (96) 
3.6443

>  <document_year>  (96) 
None

>  <target_pref_name>  (96) 
Alpha-2a adrenergic receptor

>  <assay_chembl_id>  (96) 
CHEMBL1909088

>  <standard_relation>  (96) 
=

>  <assay_description>  (96) 
DRUGMATRIX: Alpha-2A adrenergic receptor radioligand binding (ligand: MK-912)

>  <published_relation>  (96) 
=

>  <standard_value>  (96) 
3644.3

>  <qudt_units>  (96) 
http://www.openphacts.org/units/Nanomolar

>  <target_tax_id>  (96) 
9606

>  <bao_label>  (96) 
cell membrane format

>  <published_units>  (96) 
uM

>  <pchembl_value>  (96) 
5.44

>  <published_type>  (96) 
IC50

>  <activity_comment>  (96) 
None

$$$$

     RDKit          

 20 23  0  0  0  0  0  0  0  0999 V2000
    0.0000    0.0000    0.0000 S   0  0  0  0  0  0  0  0  0  0  0  0
    0.0000    0.0000    0.0000 S   0  0  0  0  0  0  0  0  0  0  0  0
    0.0000    0.0000    0.0000 C   0  0  0  0  0  0  0  0  0  0  0  0
    0.0000    0.0000    0.0000 N   0  0  0  0  0  0  0  0  0  0  0  0
    0.0000    0.0000    0.0000 C   0  0  0  0  0  0  0  0  0  0  0  0
    0.0000    0.0000    0.0000 C   0  0  0  0  0  0  0  0  0  0  0  0
    0.0000    0.0000    0.0000 C   0  0  0  0  0  0  0  0  0  0  0  0
    0.0000    0.0000    0.0000 C   0  0  0  0  0  0  0  0  0  0  0  0
    0.0000    0.0000    0.0000 C   0  0  0  0  0  0  0  0  0  0  0  0
    0.0000    0.0000    0.0000 C   0  0  0  0  0  0  0  0  0  0  0  0
    0.0000    0.0000    0.0000 S   0  0  0  0  0  0  0  0  0  0  0  0
    0.0000    0.0000    0.0000 C   0  0  0  0  0  0  0  0  0  0  0  0
    0.0000    0.0000    0.0000 N   0  0  0  0  0  0  0  0  0  0  0  0
    0.0000    0.0000    0.0000 C   0  0  0  0  0  0  0  0  0  0  0  0
    0.0000    0.0000    0.0000 C   0  0  0  0  0  0  0  0  0  0  0  0
    0.0000    0.0000    0.0000 C   0  0  0  0  0  0  0  0  0  0  0  0
    0.0000    0.0000    0.0000 C   0  0  0  0  0  0  0  0  0  0  0  0
    0.0000    0.0000    0.0000 C   0  0  0  0  0  0  0  0  0  0  0  0
    0.0000    0.0000    0.0000 C   0  0  0  0  0  0  0  0  0  0  0  0
    0.0000    0.0000    0.0000 S   0  0  0  0  0  0  0  0  0  0  0  0
  1  2  1  0
  2  3  1  0
  3  4  2  0
  4  5  1  0
  5  6  2  0
  6  7  1  0
  7  8  2  0
  8  9  1  0
  9 10  2  0
 10 11  1  0
  1 12  1  0
 12 13  2  0
 13 14  1  0
 14 15  2  0
 15 16  1  0
 16 17  2  0
 17 18  1  0
 18 19  2  0
 19 20  1  0
 11  3  1  0
 10  5  1  0
 20 12  1  0
 19 14  1  0
M  END
>  <pIC50>  (97) 
6.05

>  <ChEMBL_ID>  (97) 
CHEMBL508112

>  <document_journal>  (97) 
None

>  <bao_endpoint>  (97) 
BAO_0000190

>  <potential_duplicate>  (97) 
False

>  <uo_units>  (97) 
UO_0000065

>  <canonical_smiles>  (97) 
S(Sc1nc2ccccc2s1)c3nc4ccccc4s3

>  <parent_molecule_chembl_id>  (97) 
CHEMBL508112

>  <assay_type>  (97) 
B

>  <src_id>  (97) 
15

>  <ligand_efficiency>  (97) 
{u'le': u'0.41', u'bei': u'18.18', u'sei': u'4.55', u'lle': u'0.26'}

>  <standard_flag>  (97) 
True

>  <molecule_chembl_id>  (97) 
CHEMBL508112

>  <target_organism>  (97) 
Homo sapiens

>  <standard_units>  (97) 
nM

>  <record_id>  (97) 
1539540

>  <document_chembl_id>  (97) 
CHEMBL1909046

>  <bao_format>  (97) 
BAO_0000249

>  <data_validity_description>  (97) 
None

>  <activity_id>  (97) 
7613541

>  <standard_type>  (97) 
IC50

>  <target_chembl_id>  (97) 
CHEMBL1867

>  <data_validity_comment>  (97) 
None

>  <published_value>  (97) 
0.899

>  <document_year>  (97) 
None

>  <target_pref_name>  (97) 
Alpha-2a adrenergic receptor

>  <assay_chembl_id>  (97) 
CHEMBL1909088

>  <standard_relation>  (97) 
=

>  <assay_description>  (97) 
DRUGMATRIX: Alpha-2A adrenergic receptor radioligand binding (ligand: MK-912)

>  <published_relation>  (97) 
=

>  <standard_value>  (97) 
899

>  <qudt_units>  (97) 
http://www.openphacts.org/units/Nanomolar

>  <target_tax_id>  (97) 
9606

>  <bao_label>  (97) 
cell membrane format

>  <published_units>  (97) 
uM

>  <pchembl_value>  (97) 
6.05

>  <published_type>  (97) 
IC50

>  <activity_comment>  (97) 
None

$$$$

     RDKit          

 19 20  0  0  0  0  0  0  0  0999 V2000
    0.0000    0.0000    0.0000 O   0  0  0  0  0  0  0  0  0  0  0  0
    0.0000    0.0000    0.0000 C   0  0  0  0  0  0  0  0  0  0  0  0
    0.0000    0.0000    0.0000 C   0  0  0  0  0  0  0  0  0  0  0  0
    0.0000    0.0000    0.0000 Cl  0  0  0  0  0  0  0  0  0  0  0  0
    0.0000    0.0000    0.0000 C   0  0  0  0  0  0  0  0  0  0  0  0
    0.0000    0.0000    0.0000 C   0  0  0  0  0  0  0  0  0  0  0  0
    0.0000    0.0000    0.0000 Cl  0  0  0  0  0  0  0  0  0  0  0  0
    0.0000    0.0000    0.0000 C   0  0  0  0  0  0  0  0  0  0  0  0
    0.0000    0.0000    0.0000 C   0  0  0  0  0  0  0  0  0  0  0  0
    0.0000    0.0000    0.0000 S   0  0  0  0  0  0  0  0  0  0  0  0
    0.0000    0.0000    0.0000 C   0  0  0  0  0  0  0  0  0  0  0  0
    0.0000    0.0000    0.0000 C   0  0  0  0  0  0  0  0  0  0  0  0
    0.0000    0.0000    0.0000 C   0  0  0  0  0  0  0  0  0  0  0  0
    0.0000    0.0000    0.0000 Cl  0  0  0  0  0  0  0  0  0  0  0  0
    0.0000    0.0000    0.0000 C   0  0  0  0  0  0  0  0  0  0  0  0
    0.0000    0.0000    0.0000 C   0  0  0  0  0  0  0  0  0  0  0  0
    0.0000    0.0000    0.0000 Cl  0  0  0  0  0  0  0  0  0  0  0  0
    0.0000    0.0000    0.0000 C   0  0  0  0  0  0  0  0  0  0  0  0
    0.0000    0.0000    0.0000 O   0  0  0  0  0  0  0  0  0  0  0  0
  1  2  1  0
  2  3  2  0
  3  4  1  0
  3  5  1  0
  5  6  2  0
  6  7  1  0
  6  8  1  0
  8  9  2  0
  9 10  1  0
 10 11  1  0
 11 12  2  0
 12 13  1  0
 13 14  1  0
 13 15  2  0
 15 16  1  0
 16 17  1  0
 16 18  2  0
 18 19  1  0
  9  2  1  0
 18 11  1  0
M  END
>  <pIC50>  (98) 
5.42

>  <ChEMBL_ID>  (98) 
CHEMBL290106

>  <document_journal>  (98) 
None

>  <bao_endpoint>  (98) 
BAO_0000190

>  <potential_duplicate>  (98) 
False

>  <uo_units>  (98) 
UO_0000065

>  <canonical_smiles>  (98) 
Oc1c(Cl)cc(Cl)cc1Sc2cc(Cl)cc(Cl)c2O

>  <parent_molecule_chembl_id>  (98) 
CHEMBL290106

>  <assay_type>  (98) 
B

>  <src_id>  (98) 
15

>  <ligand_efficiency>  (98) 
{u'le': u'0.39', u'bei': u'15.22', u'sei': u'8.24', u'lle': u'-0.7'}

>  <standard_flag>  (98) 
True

>  <molecule_chembl_id>  (98) 
CHEMBL290106

>  <target_organism>  (98) 
Homo sapiens

>  <standard_units>  (98) 
nM

>  <record_id>  (98) 
1539556

>  <document_chembl_id>  (98) 
CHEMBL1909046

>  <bao_format>  (98) 
BAO_0000249

>  <data_validity_description>  (98) 
None

>  <activity_id>  (98) 
7613730

>  <standard_type>  (98) 
IC50

>  <target_chembl_id>  (98) 
CHEMBL1867

>  <data_validity_comment>  (98) 
None

>  <published_value>  (98) 
3.824

>  <document_year>  (98) 
None

>  <target_pref_name>  (98) 
Alpha-2a adrenergic receptor

>  <assay_chembl_id>  (98) 
CHEMBL1909088

>  <standard_relation>  (98) 
=

>  <assay_description>  (98) 
DRUGMATRIX: Alpha-2A adrenergic receptor radioligand binding (ligand: MK-912)

>  <published_relation>  (98) 
=

>  <standard_value>  (98) 
3824

>  <qudt_units>  (98) 
http://www.openphacts.org/units/Nanomolar

>  <target_tax_id>  (98) 
9606

>  <bao_label>  (98) 
cell membrane format

>  <published_units>  (98) 
uM

>  <pchembl_value>  (98) 
5.42

>  <published_type>  (98) 
IC50

>  <activity_comment>  (98) 
None

$$$$

     RDKit          

 23 26  0  0  0  0  0  0  0  0999 V2000
    0.0000    0.0000    0.0000 C   0  0  0  0  0  0  0  0  0  0  0  0
    0.0000    0.0000    0.0000 N   0  0  0  0  0  0  0  0  0  0  0  0
    0.0000    0.0000    0.0000 C   0  0  0  0  0  0  0  0  0  0  0  0
    0.0000    0.0000    0.0000 C   0  0  0  0  0  0  0  0  0  0  0  0
    0.0000    0.0000    0.0000 C   0  0  0  0  0  0  0  0  0  0  0  0
    0.0000    0.0000    0.0000 C   0  0  0  0  0  0  0  0  0  0  0  0
    0.0000    0.0000    0.0000 C   0  0  0  0  0  0  0  0  0  0  0  0
    0.0000    0.0000    0.0000 C   0  0  0  0  0  0  0  0  0  0  0  0
    0.0000    0.0000    0.0000 C   0  0  0  0  0  0  0  0  0  0  0  0
    0.0000    0.0000    0.0000 O   0  0  0  0  0  0  0  0  0  0  0  0
    0.0000    0.0000    0.0000 C   0  0  0  0  0  0  0  0  0  0  0  0
    0.0000    0.0000    0.0000 C   0  0  0  0  0  0  0  0  0  0  0  0
    0.0000    0.0000    0.0000 C   0  0  0  0  0  0  0  0  0  0  0  0
    0.0000    0.0000    0.0000 C   0  0  0  0  0  0  0  0  0  0  0  0
    0.0000    0.0000    0.0000 C   0  0  0  0  0  0  0  0  0  0  0  0
    0.0000    0.0000    0.0000 C   0  0  0  0  0  0  0  0  0  0  0  0
    0.0000    0.0000    0.0000 C   0  0  0  0  0  0  0  0  0  0  0  0
    0.0000    0.0000    0.0000 C   0  0  0  0  0  0  0  0  0  0  0  0
    0.0000    0.0000    0.0000 C   0  0  0  0  0  0  0  0  0  0  0  0
    0.0000    0.0000    0.0000 C   0  0  0  0  0  0  0  0  0  0  0  0
    0.0000    0.0000    0.0000 C   0  0  0  0  0  0  0  0  0  0  0  0
    0.0000    0.0000    0.0000 C   0  0  0  0  0  0  0  0  0  0  0  0
    0.0000    0.0000    0.0000 C   0  0  0  0  0  0  0  0  0  0  0  0
  1  2  1  0
  2  3  1  0
  3  4  1  0
  4  5  1  0
  5  6  1  0
  6  7  1  0
  7  8  1  0
  8  9  1  0
  8 10  1  0
 10 11  1  0
 11 12  1  0
 12 13  2  0
 13 14  1  0
 14 15  2  0
 15 16  1  0
 16 17  2  0
 11 18  1  0
 18 19  2  0
 19 20  1  0
 20 21  2  0
 21 22  1  0
 22 23  2  0
  6  2  1  0
  9  3  1  0
 17 12  1  0
 23 18  1  0
M  END
>  <pIC50>  (99) 
6.26

>  <ChEMBL_ID>  (99) 
CHEMBL1201203

>  <document_journal>  (99) 
None

>  <bao_endpoint>  (99) 
BAO_0000190

>  <potential_duplicate>  (99) 
False

>  <uo_units>  (99) 
UO_0000065

>  <canonical_smiles>  (99) 
CN1[C@@H]2CC[C@H]1C[C@H](C2)OC(c3ccccc3)c4ccccc4

>  <parent_molecule_chembl_id>  (99) 
CHEMBL1201203

>  <assay_type>  (99) 
B

>  <src_id>  (99) 
15

>  <ligand_efficiency>  (99) 
{u'le': u'0.37', u'bei': u'20.38', u'sei': u'50.24', u'lle': u'2.38'}

>  <standard_flag>  (99) 
True

>  <molecule_chembl_id>  (99) 
CHEMBL1201203

>  <target_organism>  (99) 
Homo sapiens

>  <standard_units>  (99) 
nM

>  <record_id>  (99) 
1539541

>  <document_chembl_id>  (99) 
CHEMBL1909046

>  <bao_format>  (99) 
BAO_0000249

>  <data_validity_description>  (99) 
None

>  <activity_id>  (99) 
7616489

>  <standard_type>  (99) 
IC50

>  <target_chembl_id>  (99) 
CHEMBL1867

>  <data_validity_comment>  (99) 
None

>  <published_value>  (99) 
0.544

>  <document_year>  (99) 
None

>  <target_pref_name>  (99) 
Alpha-2a adrenergic receptor

>  <assay_chembl_id>  (99) 
CHEMBL1909088

>  <standard_relation>  (99) 
=

>  <assay_description>  (99) 
DRUGMATRIX: Alpha-2A adrenergic receptor radioligand binding (ligand: MK-912)

>  <published_relation>  (99) 
=

>  <standard_value>  (99) 
544

>  <qudt_units>  (99) 
http://www.openphacts.org/units/Nanomolar

>  <target_tax_id>  (99) 
9606

>  <bao_label>  (99) 
cell membrane format

>  <published_units>  (99) 
uM

>  <pchembl_value>  (99) 
6.26

>  <published_type>  (99) 
IC50

>  <activity_comment>  (99) 
None

$$$$

     RDKit          

 34 38  0  0  0  0  0  0  0  0999 V2000
    0.0000    0.0000    0.0000 C   0  0  0  0  0  0  0  0  0  0  0  0
    0.0000    0.0000    0.0000 O   0  0  0  0  0  0  0  0  0  0  0  0
    0.0000    0.0000    0.0000 C   0  0  0  0  0  0  0  0  0  0  0  0
    0.0000    0.0000    0.0000 C   0  0  0  0  0  0  0  0  0  0  0  0
    0.0000    0.0000    0.0000 C   0  0  0  0  0  0  0  0  0  0  0  0
    0.0000    0.0000    0.0000 C   0  0  0  0  0  0  0  0  0  0  0  0
    0.0000    0.0000    0.0000 C   0  0  0  0  0  0  0  0  0  0  0  0
    0.0000    0.0000    0.0000 C   0  0  0  0  0  0  0  0  0  0  0  0
    0.0000    0.0000    0.0000 N   0  0  0  0  0  0  0  0  0  0  0  0
    0.0000    0.0000    0.0000 C   0  0  0  0  0  0  0  0  0  0  0  0
    0.0000    0.0000    0.0000 C   0  0  0  0  0  0  0  0  0  0  0  0
    0.0000    0.0000    0.0000 C   0  0  0  0  0  0  0  0  0  0  0  0
    0.0000    0.0000    0.0000 C   0  0  0  0  0  0  0  0  0  0  0  0
    0.0000    0.0000    0.0000 C   0  0  0  0  0  0  0  0  0  0  0  0
    0.0000    0.0000    0.0000 N   0  0  0  0  0  0  0  0  0  0  0  0
    0.0000    0.0000    0.0000 C   0  0  0  0  0  0  0  0  0  0  0  0
    0.0000    0.0000    0.0000 N   0  0  0  0  0  0  0  0  0  0  0  0
    0.0000    0.0000    0.0000 C   0  0  0  0  0  0  0  0  0  0  0  0
    0.0000    0.0000    0.0000 C   0  0  0  0  0  0  0  0  0  0  0  0
    0.0000    0.0000    0.0000 C   0  0  0  0  0  0  0  0  0  0  0  0
    0.0000    0.0000    0.0000 C   0  0  0  0  0  0  0  0  0  0  0  0
    0.0000    0.0000    0.0000 C   0  0  0  0  0  0  0  0  0  0  0  0
    0.0000    0.0000    0.0000 C   0  0  0  0  0  0  0  0  0  0  0  0
    0.0000    0.0000    0.0000 N   0  0  0  0  0  0  0  0  0  0  0  0
    0.0000    0.0000    0.0000 C   0  0  0  0  0  0  0  0  0  0  0  0
    0.0000    0.0000    0.0000 C   0  0  0  0  0  0  0  0  0  0  0  0
    0.0000    0.0000    0.0000 C   0  0  0  0  0  0  0  0  0  0  0  0
    0.0000    0.0000    0.0000 C   0  0  0  0  0  0  0  0  0  0  0  0
    0.0000    0.0000    0.0000 C   0  0  0  0  0  0  0  0  0  0  0  0
    0.0000    0.0000    0.0000 F   0  0  0  0  0  0  0  0  0  0  0  0
    0.0000    0.0000    0.0000 C   0  0  0  0  0  0  0  0  0  0  0  0
    0.0000    0.0000    0.0000 C   0  0  0  0  0  0  0  0  0  0  0  0
    0.0000    0.0000    0.0000 C   0  0  0  0  0  0  0  0  0  0  0  0
    0.0000    0.0000    0.0000 C   0  0  0  0  0  0  0  0  0  0  0  0
  1  2  1  0
  2  3  1  0
  3  4  2  0
  4  5  1  0
  5  6  2  0
  6  7  1  0
  7  8  1  0
  8  9  1  0
  9 10  1  0
 10 11  1  0
 11 12  1  0
 12 13  1  0
 13 14  1  0
 12 15  1  0
 15 16  1  0
 16 17  2  0
 17 18  1  0
 18 19  2  0
 19 20  1  0
 20 21  2  0
 21 22  1  0
 22 23  2  0
 23 24  1  0
 24 25  1  0
 25 26  1  0
 26 27  2  0
 27 28  1  0
 28 29  2  0
 29 30  1  0
 29 31  1  0
 31 32  2  0
  6 33  1  0
 33 34  2  0
 34  3  1  0
 14  9  1  0
 24 16  1  0
 23 18  1  0
 32 26  1  0
M  END
>  <pIC50>  (100) 
5.32

>  <ChEMBL_ID>  (100) 
CHEMBL296419

>  <document_journal>  (100) 
None

>  <bao_endpoint>  (100) 
BAO_0000190

>  <potential_duplicate>  (100) 
False

>  <uo_units>  (100) 
UO_0000065

>  <canonical_smiles>  (100) 
COc1ccc(CCN2CCC(CC2)Nc3nc4ccccc4n3Cc5ccc(F)cc5)cc1

>  <parent_molecule_chembl_id>  (100) 
CHEMBL296419

>  <assay_type>  (100) 
B

>  <src_id>  (100) 
15

>  <ligand_efficiency>  (100) 
{u'le': u'0.21', u'bei': u'11.59', u'sei': u'12.56', u'lle': u'-0.38'}

>  <standard_flag>  (100) 
True

>  <molecule_chembl_id>  (100) 
CHEMBL296419

>  <target_organism>  (100) 
Homo sapiens

>  <standard_units>  (100) 
nM

>  <record_id>  (100) 
1539510

>  <document_chembl_id>  (100) 
CHEMBL1909046

>  <bao_format>  (100) 
BAO_0000249

>  <data_validity_description>  (100) 
None

>  <activity_id>  (100) 
7618869

>  <standard_type>  (100) 
IC50

>  <target_chembl_id>  (100) 
CHEMBL1867

>  <data_validity_comment>  (100) 
None

>  <published_value>  (100) 
4.846

>  <document_year>  (100) 
None

>  <target_pref_name>  (100) 
Alpha-2a adrenergic receptor

>  <assay_chembl_id>  (100) 
CHEMBL1909088

>  <standard_relation>  (100) 
=

>  <assay_description>  (100) 
DRUGMATRIX: Alpha-2A adrenergic receptor radioligand binding (ligand: MK-912)

>  <published_relation>  (100) 
=

>  <standard_value>  (100) 
4846

>  <qudt_units>  (100) 
http://www.openphacts.org/units/Nanomolar

>  <target_tax_id>  (100) 
9606

>  <bao_label>  (100) 
cell membrane format

>  <published_units>  (100) 
uM

>  <pchembl_value>  (100) 
5.32

>  <published_type>  (100) 
IC50

>  <activity_comment>  (100) 
None

$$$$

     RDKit          

 17 19  0  0  0  0  0  0  0  0999 V2000
    0.0000    0.0000    0.0000 Br  0  0  0  0  0  0  0  0  0  0  0  0
    0.0000    0.0000    0.0000 C   0  0  0  0  0  0  0  0  0  0  0  0
    0.0000    0.0000    0.0000 C   0  0  0  0  0  0  0  0  0  0  0  0
    0.0000    0.0000    0.0000 N   0  0  0  0  0  0  0  0  0  0  0  0
    0.0000    0.0000    0.0000 C   0  0  0  0  0  0  0  0  0  0  0  0
    0.0000    0.0000    0.0000 N   0  0  0  0  0  0  0  0  0  0  0  0
    0.0000    0.0000    0.0000 C   0  0  0  0  0  0  0  0  0  0  0  0
    0.0000    0.0000    0.0000 C   0  0  0  0  0  0  0  0  0  0  0  0
    0.0000    0.0000    0.0000 N   0  0  0  0  0  0  0  0  0  0  0  0
    0.0000    0.0000    0.0000 C   0  0  0  0  0  0  0  0  0  0  0  0
    0.0000    0.0000    0.0000 C   0  0  0  0  0  0  0  0  0  0  0  0
    0.0000    0.0000    0.0000 C   0  0  0  0  0  0  0  0  0  0  0  0
    0.0000    0.0000    0.0000 N   0  0  0  0  0  0  0  0  0  0  0  0
    0.0000    0.0000    0.0000 C   0  0  0  0  0  0  0  0  0  0  0  0
    0.0000    0.0000    0.0000 C   0  0  0  0  0  0  0  0  0  0  0  0
    0.0000    0.0000    0.0000 N   0  0  0  0  0  0  0  0  0  0  0  0
    0.0000    0.0000    0.0000 C   0  0  0  0  0  0  0  0  0  0  0  0
  1  2  1  0
  2  3  2  0
  3  4  1  0
  4  5  1  0
  5  6  2  0
  6  7  1  0
  7  8  1  0
  8  9  1  0
  3 10  1  0
 10 11  2  0
 11 12  1  0
 12 13  2  0
 13 14  1  0
 14 15  2  0
 15 16  1  0
 16 17  2  0
 17  2  1  0
  9  5  1  0
 17 12  1  0
M  END
>  <pIC50>  (101) 
6.53

>  <ChEMBL_ID>  (101) 
CHEMBL844

>  <document_journal>  (101) 
None

>  <bao_endpoint>  (101) 
BAO_0000190

>  <potential_duplicate>  (101) 
False

>  <uo_units>  (101) 
UO_0000065

>  <canonical_smiles>  (101) 
Brc1c(NC2=NCCN2)ccc3nccnc13

>  <parent_molecule_chembl_id>  (101) 
CHEMBL844

>  <assay_type>  (101) 
B

>  <src_id>  (101) 
15

>  <ligand_efficiency>  (101) 
{u'le': u'0.52', u'bei': u'22.34', u'sei': u'10.49', u'lle': u'5.29'}

>  <standard_flag>  (101) 
True

>  <molecule_chembl_id>  (101) 
CHEMBL844

>  <target_organism>  (101) 
Homo sapiens

>  <standard_units>  (101) 
nM

>  <record_id>  (101) 
1539559

>  <document_chembl_id>  (101) 
CHEMBL1909046

>  <bao_format>  (101) 
BAO_0000249

>  <data_validity_description>  (101) 
None

>  <activity_id>  (101) 
7621256

>  <standard_type>  (101) 
IC50

>  <target_chembl_id>  (101) 
CHEMBL1867

>  <data_validity_comment>  (101) 
None

>  <published_value>  (101) 
0.298

>  <document_year>  (101) 
None

>  <target_pref_name>  (101) 
Alpha-2a adrenergic receptor

>  <assay_chembl_id>  (101) 
CHEMBL1909088

>  <standard_relation>  (101) 
=

>  <assay_description>  (101) 
DRUGMATRIX: Alpha-2A adrenergic receptor radioligand binding (ligand: MK-912)

>  <published_relation>  (101) 
=

>  <standard_value>  (101) 
298

>  <qudt_units>  (101) 
http://www.openphacts.org/units/Nanomolar

>  <target_tax_id>  (101) 
9606

>  <bao_label>  (101) 
cell membrane format

>  <published_units>  (101) 
uM

>  <pchembl_value>  (101) 
6.53

>  <published_type>  (101) 
IC50

>  <activity_comment>  (101) 
None

$$$$

     RDKit          

 22 25  0  0  0  0  0  0  0  0999 V2000
    0.0000    0.0000    0.0000 Cl  0  0  0  0  0  0  0  0  0  0  0  0
    0.0000    0.0000    0.0000 C   0  0  0  0  0  0  0  0  0  0  0  0
    0.0000    0.0000    0.0000 C   0  0  0  0  0  0  0  0  0  0  0  0
    0.0000    0.0000    0.0000 C   0  0  0  0  0  0  0  0  0  0  0  0
    0.0000    0.0000    0.0000 C   0  0  0  0  0  0  0  0  0  0  0  0
    0.0000    0.0000    0.0000 O   0  0  0  0  0  0  0  0  0  0  0  0
    0.0000    0.0000    0.0000 C   0  0  0  0  0  0  0  0  0  0  0  0
    0.0000    0.0000    0.0000 C   0  0  0  0  0  0  0  0  0  0  0  0
    0.0000    0.0000    0.0000 C   0  0  0  0  0  0  0  0  0  0  0  0
    0.0000    0.0000    0.0000 C   0  0  0  0  0  0  0  0  0  0  0  0
    0.0000    0.0000    0.0000 C   0  0  0  0  0  0  0  0  0  0  0  0
    0.0000    0.0000    0.0000 C   0  0  0  0  0  0  0  0  0  0  0  0
    0.0000    0.0000    0.0000 N   0  0  0  0  0  0  0  0  0  0  0  0
    0.0000    0.0000    0.0000 C   0  0  0  0  0  0  0  0  0  0  0  0
    0.0000    0.0000    0.0000 N   0  0  0  0  0  0  0  0  0  0  0  0
    0.0000    0.0000    0.0000 C   0  0  0  0  0  0  0  0  0  0  0  0
    0.0000    0.0000    0.0000 C   0  0  0  0  0  0  0  0  0  0  0  0
    0.0000    0.0000    0.0000 N   0  0  0  0  0  0  0  0  0  0  0  0
    0.0000    0.0000    0.0000 C   0  0  0  0  0  0  0  0  0  0  0  0
    0.0000    0.0000    0.0000 C   0  0  0  0  0  0  0  0  0  0  0  0
    0.0000    0.0000    0.0000 C   0  0  0  0  0  0  0  0  0  0  0  0
    0.0000    0.0000    0.0000 C   0  0  0  0  0  0  0  0  0  0  0  0
  1  2  1  0
  2  3  2  0
  3  4  1  0
  4  5  2  0
  5  6  1  0
  6  7  1  0
  7  8  2  0
  8  9  1  0
  9 10  2  0
 10 11  1  0
 11 12  2  0
 12 13  1  0
 13 14  2  0
 14 15  1  0
 15 16  1  0
 16 17  1  0
 17 18  1  0
 18 19  1  0
 19 20  1  0
 14 21  1  0
 21 22  2  0
 22  2  1  0
 21  5  1  0
 12  7  1  0
 20 15  1  0
M  END
>  <pIC50>  (102) 
5.88

>  <ChEMBL_ID>  (102) 
CHEMBL1113

>  <document_journal>  (102) 
None

>  <bao_endpoint>  (102) 
BAO_0000190

>  <potential_duplicate>  (102) 
False

>  <uo_units>  (102) 
UO_0000065

>  <canonical_smiles>  (102) 
Clc1ccc2Oc3ccccc3N=C(N4CCNCC4)c2c1

>  <parent_molecule_chembl_id>  (102) 
CHEMBL1113

>  <assay_type>  (102) 
B

>  <src_id>  (102) 
15

>  <ligand_efficiency>  (102) 
{u'le': u'0.37', u'bei': u'18.74', u'sei': u'15.96', u'lle': u'2.98'}

>  <standard_flag>  (102) 
True

>  <molecule_chembl_id>  (102) 
CHEMBL1113

>  <target_organism>  (102) 
Homo sapiens

>  <standard_units>  (102) 
nM

>  <record_id>  (102) 
1539490

>  <document_chembl_id>  (102) 
CHEMBL1909046

>  <bao_format>  (102) 
BAO_0000249

>  <data_validity_description>  (102) 
None

>  <activity_id>  (102) 
7622708

>  <standard_type>  (102) 
IC50

>  <target_chembl_id>  (102) 
CHEMBL1867

>  <data_validity_comment>  (102) 
None

>  <published_value>  (102) 
1.314

>  <document_year>  (102) 
None

>  <target_pref_name>  (102) 
Alpha-2a adrenergic receptor

>  <assay_chembl_id>  (102) 
CHEMBL1909088

>  <standard_relation>  (102) 
=

>  <assay_description>  (102) 
DRUGMATRIX: Alpha-2A adrenergic receptor radioligand binding (ligand: MK-912)

>  <published_relation>  (102) 
=

>  <standard_value>  (102) 
1314

>  <qudt_units>  (102) 
http://www.openphacts.org/units/Nanomolar

>  <target_tax_id>  (102) 
9606

>  <bao_label>  (102) 
cell membrane format

>  <published_units>  (102) 
uM

>  <pchembl_value>  (102) 
5.88

>  <published_type>  (102) 
IC50

>  <activity_comment>  (102) 
None

$$$$

     RDKit          

 13 14  0  0  0  0  0  0  0  0999 V2000
    0.0000    0.0000    0.0000 S   0  0  0  0  0  0  0  0  0  0  0  0
    0.0000    0.0000    0.0000 C   0  0  0  0  0  0  0  0  0  0  0  0
    0.0000    0.0000    0.0000 N   0  0  0  0  0  0  0  0  0  0  0  0
    0.0000    0.0000    0.0000 C   0  0  0  0  0  0  0  0  0  0  0  0
    0.0000    0.0000    0.0000 C   0  0  0  0  0  0  0  0  0  0  0  0
    0.0000    0.0000    0.0000 C   0  0  0  0  0  0  0  0  0  0  0  0
    0.0000    0.0000    0.0000 C   0  0  0  0  0  0  0  0  0  0  0  0
    0.0000    0.0000    0.0000 C   0  0  0  0  0  0  0  0  0  0  0  0
    0.0000    0.0000    0.0000 C   0  0  0  0  0  0  0  0  0  0  0  0
    0.0000    0.0000    0.0000 C   0  0  0  0  0  0  0  0  0  0  0  0
    0.0000    0.0000    0.0000 C   0  0  0  0  0  0  0  0  0  0  0  0
    0.0000    0.0000    0.0000 C   0  0  0  0  0  0  0  0  0  0  0  0
    0.0000    0.0000    0.0000 C   0  0  0  0  0  0  0  0  0  0  0  0
  1  2  2  0
  2  3  2  3
  3  4  1  0
  4  5  2  0
  5  6  1  0
  6  7  2  0
  7  8  1  0
  8  9  2  0
  9 10  1  0
 10 11  2  0
 11 12  1  0
 12 13  2  0
 13  4  1  0
 13  8  1  0
M  END
>  <pIC50>  (103) 
5.2

>  <ChEMBL_ID>  (103) 
CHEMBL1381098

>  <document_journal>  (103) 
None

>  <bao_endpoint>  (103) 
BAO_0000190

>  <potential_duplicate>  (103) 
False

>  <uo_units>  (103) 
UO_0000065

>  <canonical_smiles>  (103) 
S=C=Nc1cccc2ccccc12

>  <parent_molecule_chembl_id>  (103) 
CHEMBL1381098

>  <assay_type>  (103) 
B

>  <src_id>  (103) 
15

>  <ligand_efficiency>  (103) 
{u'le': u'0.55', u'bei': u'28.09', u'sei': u'11.7', u'lle': u'1.7'}

>  <standard_flag>  (103) 
True

>  <molecule_chembl_id>  (103) 
CHEMBL1381098

>  <target_organism>  (103) 
Homo sapiens

>  <standard_units>  (103) 
nM

>  <record_id>  (103) 
1539426

>  <document_chembl_id>  (103) 
CHEMBL1909046

>  <bao_format>  (103) 
BAO_0000249

>  <data_validity_description>  (103) 
None

>  <activity_id>  (103) 
7624604

>  <standard_type>  (103) 
IC50

>  <target_chembl_id>  (103) 
CHEMBL1867

>  <data_validity_comment>  (103) 
None

>  <published_value>  (103) 
6.272

>  <document_year>  (103) 
None

>  <target_pref_name>  (103) 
Alpha-2a adrenergic receptor

>  <assay_chembl_id>  (103) 
CHEMBL1909088

>  <standard_relation>  (103) 
=

>  <assay_description>  (103) 
DRUGMATRIX: Alpha-2A adrenergic receptor radioligand binding (ligand: MK-912)

>  <published_relation>  (103) 
=

>  <standard_value>  (103) 
6272

>  <qudt_units>  (103) 
http://www.openphacts.org/units/Nanomolar

>  <target_tax_id>  (103) 
9606

>  <bao_label>  (103) 
cell membrane format

>  <published_units>  (103) 
uM

>  <pchembl_value>  (103) 
5.2

>  <published_type>  (103) 
IC50

>  <activity_comment>  (103) 
None

$$$$

     RDKit          

 16 16  0  0  0  0  0  0  0  0999 V2000
    0.0000    0.0000    0.0000 C   0  0  0  0  0  0  0  0  0  0  0  0
    0.0000    0.0000    0.0000 C   0  0  0  0  0  0  0  0  0  0  0  0
    0.0000    0.0000    0.0000 C   0  0  0  0  0  0  0  0  0  0  0  0
    0.0000    0.0000    0.0000 C   0  0  0  0  0  0  0  0  0  0  0  0
    0.0000    0.0000    0.0000 C   0  0  0  0  0  0  0  0  0  0  0  0
    0.0000    0.0000    0.0000 C   0  0  0  0  0  0  0  0  0  0  0  0
    0.0000    0.0000    0.0000 C   0  0  0  0  0  0  0  0  0  0  0  0
    0.0000    0.0000    0.0000 C   0  0  0  0  0  0  0  0  0  0  0  0
    0.0000    0.0000    0.0000 C   0  0  0  0  0  0  0  0  0  0  0  0
    0.0000    0.0000    0.0000 C   0  0  0  0  0  0  0  0  0  0  0  0
    0.0000    0.0000    0.0000 C   0  0  0  0  0  0  0  0  0  0  0  0
    0.0000    0.0000    0.0000 C   0  0  0  0  0  0  0  0  0  0  0  0
    0.0000    0.0000    0.0000 C   0  0  0  0  0  0  0  0  0  0  0  0
    0.0000    0.0000    0.0000 O   0  0  0  0  0  0  0  0  0  0  0  0
    0.0000    0.0000    0.0000 C   0  0  0  0  0  0  0  0  0  0  0  0
    0.0000    0.0000    0.0000 C   0  0  0  0  0  0  0  0  0  0  0  0
  1  2  1  0
  2  3  1  0
  3  4  1  0
  4  5  1  0
  5  6  1  0
  6  7  1  0
  7  8  1  0
  8  9  1  0
  9 10  1  0
 10 11  2  0
 11 12  1  0
 12 13  2  0
 13 14  1  0
 13 15  1  0
 15 16  2  0
 16 10  1  0
M  END
>  <pIC50>  (104) 
5.17

>  <ChEMBL_ID>  (104) 
CHEMBL153062

>  <document_journal>  (104) 
None

>  <bao_endpoint>  (104) 
BAO_0000190

>  <potential_duplicate>  (104) 
False

>  <uo_units>  (104) 
UO_0000065

>  <canonical_smiles>  (104) 
CCCCCCCCCc1ccc(O)cc1

>  <parent_molecule_chembl_id>  (104) 
CHEMBL153062

>  <assay_type>  (104) 
B

>  <src_id>  (104) 
15

>  <ligand_efficiency>  (104) 
{u'le': u'0.44', u'bei': u'23.46', u'sei': u'25.55', u'lle': u'-0.55'}

>  <standard_flag>  (104) 
True

>  <molecule_chembl_id>  (104) 
CHEMBL153062

>  <target_organism>  (104) 
Homo sapiens

>  <standard_units>  (104) 
nM

>  <record_id>  (104) 
1539444

>  <document_chembl_id>  (104) 
CHEMBL1909046

>  <bao_format>  (104) 
BAO_0000249

>  <data_validity_description>  (104) 
None

>  <activity_id>  (104) 
7629074

>  <standard_type>  (104) 
IC50

>  <target_chembl_id>  (104) 
CHEMBL1867

>  <data_validity_comment>  (104) 
None

>  <published_value>  (104) 
6.78

>  <document_year>  (104) 
None

>  <target_pref_name>  (104) 
Alpha-2a adrenergic receptor

>  <assay_chembl_id>  (104) 
CHEMBL1909088

>  <standard_relation>  (104) 
=

>  <assay_description>  (104) 
DRUGMATRIX: Alpha-2A adrenergic receptor radioligand binding (ligand: MK-912)

>  <published_relation>  (104) 
=

>  <standard_value>  (104) 
6780

>  <qudt_units>  (104) 
http://www.openphacts.org/units/Nanomolar

>  <target_tax_id>  (104) 
9606

>  <bao_label>  (104) 
cell membrane format

>  <published_units>  (104) 
uM

>  <pchembl_value>  (104) 
5.17

>  <published_type>  (104) 
IC50

>  <activity_comment>  (104) 
None

$$$$

     RDKit          

 15 15  0  0  0  0  0  0  0  0999 V2000
    0.0000    0.0000    0.0000 C   0  0  0  0  0  0  0  0  0  0  0  0
    0.0000    0.0000    0.0000 C   0  0  0  0  0  0  0  0  0  0  0  0
    0.0000    0.0000    0.0000 C   0  0  0  0  0  0  0  0  0  0  0  0
    0.0000    0.0000    0.0000 C   0  0  0  0  0  0  0  0  0  0  0  0
    0.0000    0.0000    0.0000 C   0  0  0  0  0  0  0  0  0  0  0  0
    0.0000    0.0000    0.0000 C   0  0  0  0  0  0  0  0  0  0  0  0
    0.0000    0.0000    0.0000 C   0  0  0  0  0  0  0  0  0  0  0  0
    0.0000    0.0000    0.0000 C   0  0  0  0  0  0  0  0  0  0  0  0
    0.0000    0.0000    0.0000 C   0  0  0  0  0  0  0  0  0  0  0  0
    0.0000    0.0000    0.0000 C   0  0  0  0  0  0  0  0  0  0  0  0
    0.0000    0.0000    0.0000 C   0  0  0  0  0  0  0  0  0  0  0  0
    0.0000    0.0000    0.0000 C   0  0  0  0  0  0  0  0  0  0  0  0
    0.0000    0.0000    0.0000 O   0  0  0  0  0  0  0  0  0  0  0  0
    0.0000    0.0000    0.0000 C   0  0  0  0  0  0  0  0  0  0  0  0
    0.0000    0.0000    0.0000 C   0  0  0  0  0  0  0  0  0  0  0  0
  1  2  1  0
  2  3  1  0
  3  4  1  0
  4  5  1  0
  5  6  1  0
  6  7  1  0
  7  8  1  0
  8  9  1  0
  9 10  2  0
 10 11  1  0
 11 12  2  0
 12 13  1  0
 12 14  1  0
 14 15  2  0
 15  9  1  0
M  END
>  <pIC50>  (105) 
4.85

>  <ChEMBL_ID>  (105) 
CHEMBL195437

>  <document_journal>  (105) 
None

>  <bao_endpoint>  (105) 
BAO_0000190

>  <potential_duplicate>  (105) 
False

>  <uo_units>  (105) 
UO_0000065

>  <canonical_smiles>  (105) 
CCCCCCCCc1ccc(O)cc1

>  <parent_molecule_chembl_id>  (105) 
CHEMBL195437

>  <assay_type>  (105) 
B

>  <src_id>  (105) 
15

>  <ligand_efficiency>  (105) 
{u'le': u'0.44', u'bei': u'23.48', u'sei': u'23.95', u'lle': u'-0.42'}

>  <standard_flag>  (105) 
True

>  <molecule_chembl_id>  (105) 
CHEMBL195437

>  <target_organism>  (105) 
Homo sapiens

>  <standard_units>  (105) 
nM

>  <record_id>  (105) 
1539445

>  <document_chembl_id>  (105) 
CHEMBL1909046

>  <bao_format>  (105) 
BAO_0000249

>  <data_validity_description>  (105) 
None

>  <activity_id>  (105) 
7631608

>  <standard_type>  (105) 
IC50

>  <target_chembl_id>  (105) 
CHEMBL1867

>  <data_validity_comment>  (105) 
None

>  <published_value>  (105) 
14.288

>  <document_year>  (105) 
None

>  <target_pref_name>  (105) 
Alpha-2a adrenergic receptor

>  <assay_chembl_id>  (105) 
CHEMBL1909088

>  <standard_relation>  (105) 
=

>  <assay_description>  (105) 
DRUGMATRIX: Alpha-2A adrenergic receptor radioligand binding (ligand: MK-912)

>  <published_relation>  (105) 
=

>  <standard_value>  (105) 
14288

>  <qudt_units>  (105) 
http://www.openphacts.org/units/Nanomolar

>  <target_tax_id>  (105) 
9606

>  <bao_label>  (105) 
cell membrane format

>  <published_units>  (105) 
uM

>  <pchembl_value>  (105) 
4.85

>  <published_type>  (105) 
IC50

>  <activity_comment>  (105) 
None

$$$$

     RDKit          

 31 33  0  0  0  0  0  0  0  0999 V2000
    0.0000    0.0000    0.0000 C   0  0  0  0  0  0  0  0  0  0  0  0
    0.0000    0.0000    0.0000 C   0  0  0  0  0  0  0  0  0  0  0  0
    0.0000    0.0000    0.0000 C   0  0  0  0  0  0  0  0  0  0  0  0
    0.0000    0.0000    0.0000 C   0  0  0  0  0  0  0  0  0  0  0  0
    0.0000    0.0000    0.0000 C   0  0  0  0  0  0  0  0  0  0  0  0
    0.0000    0.0000    0.0000 O   0  0  0  0  0  0  0  0  0  0  0  0
    0.0000    0.0000    0.0000 C   0  0  0  0  0  0  0  0  0  0  0  0
    0.0000    0.0000    0.0000 C   0  0  0  0  0  0  0  0  0  0  0  0
    0.0000    0.0000    0.0000 C   0  0  0  0  0  0  0  0  0  0  0  0
    0.0000    0.0000    0.0000 C   0  0  0  0  0  0  0  0  0  0  0  0
    0.0000    0.0000    0.0000 C   0  0  0  0  0  0  0  0  0  0  0  0
    0.0000    0.0000    0.0000 C   0  0  0  0  0  0  0  0  0  0  0  0
    0.0000    0.0000    0.0000 C   0  0  0  0  0  0  0  0  0  0  0  0
    0.0000    0.0000    0.0000 C   0  0  0  0  0  0  0  0  0  0  0  0
    0.0000    0.0000    0.0000 O   0  0  0  0  0  0  0  0  0  0  0  0
    0.0000    0.0000    0.0000 C   0  0  0  0  0  0  0  0  0  0  0  0
    0.0000    0.0000    0.0000 C   0  0  0  0  0  0  0  0  0  0  0  0
    0.0000    0.0000    0.0000 C   0  0  0  0  0  0  0  0  0  0  0  0
    0.0000    0.0000    0.0000 I   0  0  0  0  0  0  0  0  0  0  0  0
    0.0000    0.0000    0.0000 C   0  0  0  0  0  0  0  0  0  0  0  0
    0.0000    0.0000    0.0000 O   0  0  0  0  0  0  0  0  0  0  0  0
    0.0000    0.0000    0.0000 C   0  0  0  0  0  0  0  0  0  0  0  0
    0.0000    0.0000    0.0000 C   0  0  0  0  0  0  0  0  0  0  0  0
    0.0000    0.0000    0.0000 N   0  0  0  0  0  0  0  0  0  0  0  0
    0.0000    0.0000    0.0000 C   0  0  0  0  0  0  0  0  0  0  0  0
    0.0000    0.0000    0.0000 C   0  0  0  0  0  0  0  0  0  0  0  0
    0.0000    0.0000    0.0000 C   0  0  0  0  0  0  0  0  0  0  0  0
    0.0000    0.0000    0.0000 C   0  0  0  0  0  0  0  0  0  0  0  0
    0.0000    0.0000    0.0000 C   0  0  0  0  0  0  0  0  0  0  0  0
    0.0000    0.0000    0.0000 I   0  0  0  0  0  0  0  0  0  0  0  0
    0.0000    0.0000    0.0000 C   0  0  0  0  0  0  0  0  0  0  0  0
  1  2  1  0
  2  3  1  0
  3  4  1  0
  4  5  1  0
  5  6  1  0
  6  7  1  0
  7  8  2  0
  8  9  1  0
  9 10  2  0
 10 11  1  0
 11 12  2  0
 12 13  1  0
 13 14  1  0
 14 15  2  0
 14 16  1  0
 16 17  2  0
 17 18  1  0
 18 19  1  0
 18 20  2  0
 20 21  1  0
 21 22  1  0
 22 23  1  0
 23 24  1  0
 24 25  1  0
 25 26  1  0
 24 27  1  0
 27 28  1  0
 20 29  1  0
 29 30  1  0
 29 31  2  0
 13  5  2  0
 12  7  1  0
 31 16  1  0
M  END
>  <pIC50>  (106) 
6.51

>  <ChEMBL_ID>  (106) 
CHEMBL633

>  <document_journal>  (106) 
None

>  <bao_endpoint>  (106) 
BAO_0000190

>  <potential_duplicate>  (106) 
False

>  <uo_units>  (106) 
UO_0000065

>  <canonical_smiles>  (106) 
CCCCc1oc2ccccc2c1C(=O)c3cc(I)c(OCCN(CC)CC)c(I)c3

>  <parent_molecule_chembl_id>  (106) 
CHEMBL633

>  <assay_type>  (106) 
B

>  <src_id>  (106) 
15

>  <ligand_efficiency>  (106) 
{u'le': u'0.29', u'bei': u'10.08', u'sei': u'15.24', u'lle': u'-0.73'}

>  <standard_flag>  (106) 
True

>  <molecule_chembl_id>  (106) 
CHEMBL633

>  <target_organism>  (106) 
Homo sapiens

>  <standard_units>  (106) 
nM

>  <record_id>  (106) 
1539485

>  <document_chembl_id>  (106) 
CHEMBL1909046

>  <bao_format>  (106) 
BAO_0000249

>  <data_validity_description>  (106) 
None

>  <activity_id>  (106) 
7632306

>  <standard_type>  (106) 
IC50

>  <target_chembl_id>  (106) 
CHEMBL1867

>  <data_validity_comment>  (106) 
None

>  <published_value>  (106) 
0.312

>  <document_year>  (106) 
None

>  <target_pref_name>  (106) 
Alpha-2a adrenergic receptor

>  <assay_chembl_id>  (106) 
CHEMBL1909088

>  <standard_relation>  (106) 
=

>  <assay_description>  (106) 
DRUGMATRIX: Alpha-2A adrenergic receptor radioligand binding (ligand: MK-912)

>  <published_relation>  (106) 
=

>  <standard_value>  (106) 
312

>  <qudt_units>  (106) 
http://www.openphacts.org/units/Nanomolar

>  <target_tax_id>  (106) 
9606

>  <bao_label>  (106) 
cell membrane format

>  <published_units>  (106) 
uM

>  <pchembl_value>  (106) 
6.51

>  <published_type>  (106) 
IC50

>  <activity_comment>  (106) 
None

$$$$

     RDKit          

 42 48  0  0  0  0  0  0  0  0999 V2000
    0.0000    0.0000    0.0000 C   0  0  0  0  0  0  0  0  0  0  0  0
    0.0000    0.0000    0.0000 C   0  0  0  0  0  0  0  0  0  0  0  0
    0.0000    0.0000    0.0000 C   0  0  0  0  0  0  0  0  0  0  0  0
    0.0000    0.0000    0.0000 C   0  0  0  0  0  0  0  0  0  0  0  0
    0.0000    0.0000    0.0000 C   0  0  0  0  0  0  0  0  0  0  0  0
    0.0000    0.0000    0.0000 N   0  0  0  0  0  0  0  0  0  0  0  0
    0.0000    0.0000    0.0000 C   0  0  0  0  0  0  0  0  0  0  0  0
    0.0000    0.0000    0.0000 O   0  0  0  0  0  0  0  0  0  0  0  0
    0.0000    0.0000    0.0000 C   0  0  0  0  0  0  0  0  0  0  0  0
    0.0000    0.0000    0.0000 N   0  0  0  0  0  0  0  0  0  0  0  0
    0.0000    0.0000    0.0000 C   0  0  0  0  0  0  0  0  0  0  0  0
    0.0000    0.0000    0.0000 O   0  0  0  0  0  0  0  0  0  0  0  0
    0.0000    0.0000    0.0000 C   0  0  0  0  0  0  0  0  0  0  0  0
    0.0000    0.0000    0.0000 C   0  0  0  0  0  0  0  0  0  0  0  0
    0.0000    0.0000    0.0000 N   0  0  0  0  0  0  0  0  0  0  0  0
    0.0000    0.0000    0.0000 C   0  0  0  0  0  0  0  0  0  0  0  0
    0.0000    0.0000    0.0000 C   0  0  0  0  0  0  0  0  0  0  0  0
    0.0000    0.0000    0.0000 C   0  0  0  0  0  0  0  0  0  0  0  0
    0.0000    0.0000    0.0000 C   0  0  0  0  0  0  0  0  0  0  0  0
    0.0000    0.0000    0.0000 C   0  0  0  0  0  0  0  0  0  0  0  0
    0.0000    0.0000    0.0000 N   0  0  0  0  0  0  0  0  0  0  0  0
    0.0000    0.0000    0.0000 C   0  0  0  0  0  0  0  0  0  0  0  0
    0.0000    0.0000    0.0000 C   0  0  0  0  0  0  0  0  0  0  0  0
    0.0000    0.0000    0.0000 C   0  0  0  0  0  0  0  0  0  0  0  0
    0.0000    0.0000    0.0000 C   0  0  0  0  0  0  0  0  0  0  0  0
    0.0000    0.0000    0.0000 C   0  0  0  0  0  0  0  0  0  0  0  0
    0.0000    0.0000    0.0000 C   0  0  0  0  0  0  0  0  0  0  0  0
    0.0000    0.0000    0.0000 C   0  0  0  0  0  0  0  0  0  0  0  0
    0.0000    0.0000    0.0000 C   0  0  0  0  0  0  0  0  0  0  0  0
    0.0000    0.0000    0.0000 O   0  0  0  0  0  0  0  0  0  0  0  0
    0.0000    0.0000    0.0000 C   0  0  0  0  0  0  0  0  0  0  0  0
    0.0000    0.0000    0.0000 O   0  0  0  0  0  0  0  0  0  0  0  0
    0.0000    0.0000    0.0000 C   0  0  0  0  0  0  0  0  0  0  0  0
    0.0000    0.0000    0.0000 C   0  0  0  0  0  0  0  0  0  0  0  0
    0.0000    0.0000    0.0000 C   0  0  0  0  0  0  0  0  0  0  0  0
    0.0000    0.0000    0.0000 C   0  0  0  0  0  0  0  0  0  0  0  0
    0.0000    0.0000    0.0000 N   0  0  0  0  0  0  0  0  0  0  0  0
    0.0000    0.0000    0.0000 C   0  0  0  0  0  0  0  0  0  0  0  0
    0.0000    0.0000    0.0000 O   0  0  0  0  0  0  0  0  0  0  0  0
    0.0000    0.0000    0.0000 C   0  0  0  0  0  0  0  0  0  0  0  0
    0.0000    0.0000    0.0000 C   0  0  0  0  0  0  0  0  0  0  0  0
    0.0000    0.0000    0.0000 C   0  0  0  0  0  0  0  0  0  0  0  0
  1  2  1  0
  2  3  1  0
  2  4  1  0
  4  5  1  0
  5  6  1  0
  6  7  1  0
  7  8  2  0
  7  9  1  0
  9 10  1  0
 10 11  1  0
 11 12  2  0
 11 13  1  0
 13 14  1  0
 14 15  1  0
 15 16  1  0
 15 17  1  0
 17 18  1  0
 18 19  1  0
 19 20  2  0
 20 21  1  0
 21 22  1  0
 22 23  2  0
 23 24  1  0
 24 25  2  0
 25 26  1  0
 26 27  1  0
 27 28  2  0
 26 29  2  0
  9 30  1  0
 30 31  1  0
 31 32  1  0
 31 33  1  0
 33 34  1  0
 34 35  1  0
 35 36  1  0
 36 37  1  0
 37 38  1  0
 38 39  2  0
  9 40  1  0
 40 41  1  0
 40 42  1  0
 38  5  1  0
 31  6  1  0
 28 13  1  0
 27 17  1  0
 29 19  1  0
 29 22  1  0
 37 33  1  0
M  END
>  <pIC50>  (107) 
8.1

>  <ChEMBL_ID>  (107) 
CHEMBL1403281

>  <document_journal>  (107) 
None

>  <bao_endpoint>  (107) 
BAO_0000190

>  <potential_duplicate>  (107) 
False

>  <uo_units>  (107) 
UO_0000065

>  <canonical_smiles>  (107) 
CC(C)C[C@@H]1N2C(=O)[C@](NC(=O)[C@H]3CN(C)[C@@H]4Cc5c[nH]c6cccc(C4=C3)c56)(O[C@@]2(O)[C@@H]7CCCN7C1=O)C(C)C

>  <parent_molecule_chembl_id>  (107) 
CHEMBL1403281

>  <assay_type>  (107) 
B

>  <src_id>  (107) 
15

>  <ligand_efficiency>  (107) 
{u'le': u'0.26', u'bei': u'14.07', u'sei': u'6.85', u'lle': u'4.3'}

>  <standard_flag>  (107) 
True

>  <molecule_chembl_id>  (107) 
CHEMBL1403281

>  <target_organism>  (107) 
Homo sapiens

>  <standard_units>  (107) 
nM

>  <record_id>  (107) 
1539470

>  <document_chembl_id>  (107) 
CHEMBL1909046

>  <bao_format>  (107) 
BAO_0000249

>  <data_validity_description>  (107) 
None

>  <activity_id>  (107) 
7633418

>  <standard_type>  (107) 
IC50

>  <target_chembl_id>  (107) 
CHEMBL1867

>  <data_validity_comment>  (107) 
None

>  <published_value>  (107) 
0.007946

>  <document_year>  (107) 
None

>  <target_pref_name>  (107) 
Alpha-2a adrenergic receptor

>  <assay_chembl_id>  (107) 
CHEMBL1909088

>  <standard_relation>  (107) 
=

>  <assay_description>  (107) 
DRUGMATRIX: Alpha-2A adrenergic receptor radioligand binding (ligand: MK-912)

>  <published_relation>  (107) 
=

>  <standard_value>  (107) 
7.946

>  <qudt_units>  (107) 
http://www.openphacts.org/units/Nanomolar

>  <target_tax_id>  (107) 
9606

>  <bao_label>  (107) 
cell membrane format

>  <published_units>  (107) 
uM

>  <pchembl_value>  (107) 
8.1

>  <published_type>  (107) 
IC50

>  <activity_comment>  (107) 
None

$$$$

     RDKit          

 22 23  0  0  0  0  0  0  0  0999 V2000
    0.0000    0.0000    0.0000 C   0  0  0  0  0  0  0  0  0  0  0  0
    0.0000    0.0000    0.0000 N   0  0  0  0  0  0  0  0  0  0  0  0
    0.0000    0.0000    0.0000 C   0  0  0  0  0  0  0  0  0  0  0  0
    0.0000    0.0000    0.0000 N   0  0  0  0  0  0  0  0  0  0  0  0
    0.0000    0.0000    0.0000 C   0  0  0  0  0  0  0  0  0  0  0  0
    0.0000    0.0000    0.0000 C   0  0  0  0  0  0  0  0  0  0  0  0
    0.0000    0.0000    0.0000 C   0  0  0  0  0  0  0  0  0  0  0  0
    0.0000    0.0000    0.0000 C   0  0  0  0  0  0  0  0  0  0  0  0
    0.0000    0.0000    0.0000 C   0  0  0  0  0  0  0  0  0  0  0  0
    0.0000    0.0000    0.0000 C   0  0  0  0  0  0  0  0  0  0  0  0
    0.0000    0.0000    0.0000 C   0  0  0  0  0  0  0  0  0  0  0  0
    0.0000    0.0000    0.0000 C   0  0  0  0  0  0  0  0  0  0  0  0
    0.0000    0.0000    0.0000 C   0  0  0  0  0  0  0  0  0  0  0  0
    0.0000    0.0000    0.0000 N   0  0  0  0  0  0  0  0  0  0  0  0
    0.0000    0.0000    0.0000 C   0  0  0  0  0  0  0  0  0  0  0  0
    0.0000    0.0000    0.0000 C   0  0  0  0  0  0  0  0  0  0  0  0
    0.0000    0.0000    0.0000 C   0  0  0  0  0  0  0  0  0  0  0  0
    0.0000    0.0000    0.0000 C   0  0  0  0  0  0  0  0  0  0  0  0
    0.0000    0.0000    0.0000 C   0  0  0  0  0  0  0  0  0  0  0  0
    0.0000    0.0000    0.0000 C   0  0  0  0  0  0  0  0  0  0  0  0
    0.0000    0.0000    0.0000 C   0  0  0  0  0  0  0  0  0  0  0  0
    0.0000    0.0000    0.0000 C   0  0  0  0  0  0  0  0  0  0  0  0
  1  2  1  0
  2  3  1  0
  3  4  2  0
  4  5  1  0
  5  6  2  0
  6  7  1  0
  7  8  2  0
  8  9  1  0
  8 10  1  0
 10 11  2  0
 11 12  1  0
  2 13  1  0
 13 14  2  0
 14 15  1  0
 15 16  2  0
 16 17  1  0
 17 18  2  0
 18 19  1  0
 18 20  1  0
 20 21  2  0
 21 22  1  0
 11  5  1  0
 21 15  1  0
M  END
>  <pIC50>  (108) 
6.03

>  <ChEMBL_ID>  (108) 
CHEMBL1365675

>  <document_journal>  (108) 
None

>  <bao_endpoint>  (108) 
BAO_0000190

>  <potential_duplicate>  (108) 
False

>  <uo_units>  (108) 
UO_0000065

>  <canonical_smiles>  (108) 
CN(\C=N\c1ccc(C)cc1C)\C=N\c2ccc(C)cc2C

>  <parent_molecule_chembl_id>  (108) 
CHEMBL1365675

>  <assay_type>  (108) 
B

>  <src_id>  (108) 
15

>  <ligand_efficiency>  (108) 
{u'le': u'0.37', u'bei': u'20.56', u'sei': u'21.58', u'lle': u'1.2'}

>  <standard_flag>  (108) 
True

>  <molecule_chembl_id>  (108) 
CHEMBL1365675

>  <target_organism>  (108) 
Homo sapiens

>  <standard_units>  (108) 
nM

>  <record_id>  (108) 
1539486

>  <document_chembl_id>  (108) 
CHEMBL1909046

>  <bao_format>  (108) 
BAO_0000249

>  <data_validity_description>  (108) 
None

>  <activity_id>  (108) 
7635001

>  <standard_type>  (108) 
IC50

>  <target_chembl_id>  (108) 
CHEMBL1867

>  <data_validity_comment>  (108) 
None

>  <published_value>  (108) 
0.9269

>  <document_year>  (108) 
None

>  <target_pref_name>  (108) 
Alpha-2a adrenergic receptor

>  <assay_chembl_id>  (108) 
CHEMBL1909088

>  <standard_relation>  (108) 
=

>  <assay_description>  (108) 
DRUGMATRIX: Alpha-2A adrenergic receptor radioligand binding (ligand: MK-912)

>  <published_relation>  (108) 
=

>  <standard_value>  (108) 
926.9

>  <qudt_units>  (108) 
http://www.openphacts.org/units/Nanomolar

>  <target_tax_id>  (108) 
9606

>  <bao_label>  (108) 
cell membrane format

>  <published_units>  (108) 
uM

>  <pchembl_value>  (108) 
6.03

>  <published_type>  (108) 
IC50

>  <activity_comment>  (108) 
None

$$$$

     RDKit          

 21 23  0  0  0  0  0  0  0  0999 V2000
    0.0000    0.0000    0.0000 C   0  0  0  0  0  0  0  0  0  0  0  0
    0.0000    0.0000    0.0000 N   0  0  0  0  0  0  0  0  0  0  0  0
    0.0000    0.0000    0.0000 C   0  0  0  0  0  0  0  0  0  0  0  0
    0.0000    0.0000    0.0000 C   0  0  0  0  0  0  0  0  0  0  0  0
    0.0000    0.0000    0.0000 C   0  0  0  0  0  0  0  0  0  0  0  0
    0.0000    0.0000    0.0000 C   0  0  0  0  0  0  0  0  0  0  0  0
    0.0000    0.0000    0.0000 C   0  0  0  0  0  0  0  0  0  0  0  0
    0.0000    0.0000    0.0000 C   0  0  0  0  0  0  0  0  0  0  0  0
    0.0000    0.0000    0.0000 C   0  0  0  0  0  0  0  0  0  0  0  0
    0.0000    0.0000    0.0000 C   0  0  0  0  0  0  0  0  0  0  0  0
    0.0000    0.0000    0.0000 C   0  0  0  0  0  0  0  0  0  0  0  0
    0.0000    0.0000    0.0000 C   0  0  0  0  0  0  0  0  0  0  0  0
    0.0000    0.0000    0.0000 C   0  0  0  0  0  0  0  0  0  0  0  0
    0.0000    0.0000    0.0000 C   0  0  0  0  0  0  0  0  0  0  0  0
    0.0000    0.0000    0.0000 C   0  0  0  0  0  0  0  0  0  0  0  0
    0.0000    0.0000    0.0000 C   0  0  0  0  0  0  0  0  0  0  0  0
    0.0000    0.0000    0.0000 C   0  0  0  0  0  0  0  0  0  0  0  0
    0.0000    0.0000    0.0000 C   0  0  0  0  0  0  0  0  0  0  0  0
    0.0000    0.0000    0.0000 C   0  0  0  0  0  0  0  0  0  0  0  0
    0.0000    0.0000    0.0000 C   0  0  0  0  0  0  0  0  0  0  0  0
    0.0000    0.0000    0.0000 C   0  0  0  0  0  0  0  0  0  0  0  0
  1  2  1  0
  2  3  1  0
  2  4  1  0
  4  5  1  0
  5  6  1  0
  6  7  2  3
  7  8  1  0
  8  9  2  0
  9 10  1  0
 10 11  2  0
 11 12  1  0
 12 13  2  0
 13 14  1  0
 14 15  1  0
 15 16  1  0
 16 17  2  0
 17 18  1  0
 18 19  2  0
 19 20  1  0
 20 21  2  0
 21  7  1  0
 13  8  1  0
 21 16  1  0
M  END
>  <pIC50>  (109) 
6.46

>  <ChEMBL_ID>  (109) 
CHEMBL629

>  <document_journal>  (109) 
None

>  <bao_endpoint>  (109) 
BAO_0000190

>  <potential_duplicate>  (109) 
False

>  <uo_units>  (109) 
UO_0000065

>  <canonical_smiles>  (109) 
CN(C)CCC=C1c2ccccc2CCc3ccccc13

>  <parent_molecule_chembl_id>  (109) 
CHEMBL629

>  <assay_type>  (109) 
B

>  <src_id>  (109) 
15

>  <ligand_efficiency>  (109) 
{u'le': u'0.42', u'bei': u'23.27', u'sei': u'199.22', u'lle': u'1.68'}

>  <standard_flag>  (109) 
True

>  <molecule_chembl_id>  (109) 
CHEMBL629

>  <target_organism>  (109) 
Homo sapiens

>  <standard_units>  (109) 
nM

>  <record_id>  (109) 
1539487

>  <document_chembl_id>  (109) 
CHEMBL1909046

>  <bao_format>  (109) 
BAO_0000249

>  <data_validity_description>  (109) 
None

>  <activity_id>  (109) 
7637716

>  <standard_type>  (109) 
IC50

>  <target_chembl_id>  (109) 
CHEMBL1867

>  <data_validity_comment>  (109) 
None

>  <published_value>  (109) 
0.351

>  <document_year>  (109) 
None

>  <target_pref_name>  (109) 
Alpha-2a adrenergic receptor

>  <assay_chembl_id>  (109) 
CHEMBL1909088

>  <standard_relation>  (109) 
=

>  <assay_description>  (109) 
DRUGMATRIX: Alpha-2A adrenergic receptor radioligand binding (ligand: MK-912)

>  <published_relation>  (109) 
=

>  <standard_value>  (109) 
351

>  <qudt_units>  (109) 
http://www.openphacts.org/units/Nanomolar

>  <target_tax_id>  (109) 
9606

>  <bao_label>  (109) 
cell membrane format

>  <published_units>  (109) 
uM

>  <pchembl_value>  (109) 
6.46

>  <published_type>  (109) 
IC50

>  <activity_comment>  (109) 
None

$$$$

     RDKit          

 17 19  0  0  0  0  0  0  0  0999 V2000
    0.0000    0.0000    0.0000 C   0  0  0  0  0  0  0  0  0  0  0  0
    0.0000    0.0000    0.0000 C   0  0  0  0  0  0  0  0  0  0  0  0
    0.0000    0.0000    0.0000 O   0  0  0  0  0  0  0  0  0  0  0  0
    0.0000    0.0000    0.0000 N   0  0  0  0  0  0  0  0  0  0  0  0
    0.0000    0.0000    0.0000 C   0  0  0  0  0  0  0  0  0  0  0  0
    0.0000    0.0000    0.0000 C   0  0  0  0  0  0  0  0  0  0  0  0
    0.0000    0.0000    0.0000 C   0  0  0  0  0  0  0  0  0  0  0  0
    0.0000    0.0000    0.0000 C   0  0  0  0  0  0  0  0  0  0  0  0
    0.0000    0.0000    0.0000 C   0  0  0  0  0  0  0  0  0  0  0  0
    0.0000    0.0000    0.0000 C   0  0  0  0  0  0  0  0  0  0  0  0
    0.0000    0.0000    0.0000 C   0  0  0  0  0  0  0  0  0  0  0  0
    0.0000    0.0000    0.0000 C   0  0  0  0  0  0  0  0  0  0  0  0
    0.0000    0.0000    0.0000 C   0  0  0  0  0  0  0  0  0  0  0  0
    0.0000    0.0000    0.0000 C   0  0  0  0  0  0  0  0  0  0  0  0
    0.0000    0.0000    0.0000 C   0  0  0  0  0  0  0  0  0  0  0  0
    0.0000    0.0000    0.0000 C   0  0  0  0  0  0  0  0  0  0  0  0
    0.0000    0.0000    0.0000 C   0  0  0  0  0  0  0  0  0  0  0  0
  1  2  1  0
  2  3  2  0
  2  4  1  0
  4  5  1  0
  5  6  2  0
  6  7  1  0
  7  8  2  0
  8  9  1  0
  9 10  1  0
 10 11  1  0
 11 12  2  0
 12 13  1  0
 13 14  2  0
 14 15  1  0
 15 16  2  0
  9 17  2  0
 17  5  1  0
 16  8  1  0
 16 11  1  0
M  END
>  <pIC50>  (110) 
4.68

>  <ChEMBL_ID>  (110) 
CHEMBL311469

>  <document_journal>  (110) 
None

>  <bao_endpoint>  (110) 
BAO_0000190

>  <potential_duplicate>  (110) 
False

>  <uo_units>  (110) 
UO_0000065

>  <canonical_smiles>  (110) 
CC(=O)Nc1ccc2c(Cc3ccccc23)c1

>  <parent_molecule_chembl_id>  (110) 
CHEMBL311469

>  <assay_type>  (110) 
B

>  <src_id>  (110) 
15

>  <ligand_efficiency>  (110) 
{u'le': u'0.38', u'bei': u'20.95', u'sei': u'16.07', u'lle': u'2.07'}

>  <standard_flag>  (110) 
True

>  <molecule_chembl_id>  (110) 
CHEMBL311469

>  <target_organism>  (110) 
Homo sapiens

>  <standard_units>  (110) 
nM

>  <record_id>  (110) 
1539431

>  <document_chembl_id>  (110) 
CHEMBL1909046

>  <bao_format>  (110) 
BAO_0000249

>  <data_validity_description>  (110) 
None

>  <activity_id>  (110) 
7638316

>  <standard_type>  (110) 
IC50

>  <target_chembl_id>  (110) 
CHEMBL1867

>  <data_validity_comment>  (110) 
None

>  <published_value>  (110) 
21.061

>  <document_year>  (110) 
None

>  <target_pref_name>  (110) 
Alpha-2a adrenergic receptor

>  <assay_chembl_id>  (110) 
CHEMBL1909088

>  <standard_relation>  (110) 
=

>  <assay_description>  (110) 
DRUGMATRIX: Alpha-2A adrenergic receptor radioligand binding (ligand: MK-912)

>  <published_relation>  (110) 
=

>  <standard_value>  (110) 
21061

>  <qudt_units>  (110) 
http://www.openphacts.org/units/Nanomolar

>  <target_tax_id>  (110) 
9606

>  <bao_label>  (110) 
cell membrane format

>  <published_units>  (110) 
uM

>  <pchembl_value>  (110) 
4.68

>  <published_type>  (110) 
IC50

>  <activity_comment>  (110) 
None

$$$$

     RDKit          

 28 29  0  0  0  0  0  0  0  0999 V2000
    0.0000    0.0000    0.0000 C   0  0  0  0  0  0  0  0  0  0  0  0
    0.0000    0.0000    0.0000 C   0  0  0  0  0  0  0  0  0  0  0  0
    0.0000    0.0000    0.0000 O   0  0  0  0  0  0  0  0  0  0  0  0
    0.0000    0.0000    0.0000 C   0  0  0  0  0  0  0  0  0  0  0  0
    0.0000    0.0000    0.0000 O   0  0  0  0  0  0  0  0  0  0  0  0
    0.0000    0.0000    0.0000 C   0  0  0  0  0  0  0  0  0  0  0  0
    0.0000    0.0000    0.0000 C   0  0  0  0  0  0  0  0  0  0  0  0
    0.0000    0.0000    0.0000 C   0  0  0  0  0  0  0  0  0  0  0  0
    0.0000    0.0000    0.0000 O   0  0  0  0  0  0  0  0  0  0  0  0
    0.0000    0.0000    0.0000 C   0  0  0  0  0  0  0  0  0  0  0  0
    0.0000    0.0000    0.0000 C   0  0  0  0  0  0  0  0  0  0  0  0
    0.0000    0.0000    0.0000 N   0  0  0  0  0  0  0  0  0  0  0  0
    0.0000    0.0000    0.0000 N   0  0  0  0  0  0  0  0  0  0  0  0
    0.0000    0.0000    0.0000 C   0  0  0  0  0  0  0  0  0  0  0  0
    0.0000    0.0000    0.0000 C   0  0  0  0  0  0  0  0  0  0  0  0
    0.0000    0.0000    0.0000 C   0  0  0  0  0  0  0  0  0  0  0  0
    0.0000    0.0000    0.0000 C   0  0  0  0  0  0  0  0  0  0  0  0
    0.0000    0.0000    0.0000 C   0  0  0  0  0  0  0  0  0  0  0  0
    0.0000    0.0000    0.0000 C   0  0  0  0  0  0  0  0  0  0  0  0
    0.0000    0.0000    0.0000 C   0  0  0  0  0  0  0  0  0  0  0  0
    0.0000    0.0000    0.0000 C   0  0  0  0  0  0  0  0  0  0  0  0
    0.0000    0.0000    0.0000 C   0  0  0  0  0  0  0  0  0  0  0  0
    0.0000    0.0000    0.0000 Cl  0  0  0  0  0  0  0  0  0  0  0  0
    0.0000    0.0000    0.0000 C   0  0  0  0  0  0  0  0  0  0  0  0
    0.0000    0.0000    0.0000 O   0  0  0  0  0  0  0  0  0  0  0  0
    0.0000    0.0000    0.0000 O   0  0  0  0  0  0  0  0  0  0  0  0
    0.0000    0.0000    0.0000 C   0  0  0  0  0  0  0  0  0  0  0  0
    0.0000    0.0000    0.0000 C   0  0  0  0  0  0  0  0  0  0  0  0
  1  2  1  0
  2  3  1  0
  3  4  1  0
  4  5  2  0
  4  6  1  0
  6  7  2  0
  7  8  1  0
  8  9  1  0
  9 10  1  0
 10 11  1  0
 11 12  1  0
  7 13  1  0
 13 14  1  0
 14 15  2  0
 15 16  1  0
 16 17  1  0
 17 18  2  0
 18 19  1  0
 19 20  2  0
 20 21  1  0
 21 22  2  0
 22 23  1  0
 15 24  1  0
 24 25  2  0
 24 26  1  0
 26 27  1  0
 14 28  1  0
 16  6  1  0
 22 17  1  0
M  END
>  <pIC50>  (111) 
6.22

>  <ChEMBL_ID>  (111) 
CHEMBL1491

>  <document_journal>  (111) 
None

>  <bao_endpoint>  (111) 
BAO_0000190

>  <potential_duplicate>  (111) 
False

>  <uo_units>  (111) 
UO_0000065

>  <canonical_smiles>  (111) 
CCOC(=O)C1=C(COCCN)NC(=C(C1c2ccccc2Cl)C(=O)OC)C

>  <parent_molecule_chembl_id>  (111) 
CHEMBL1491

>  <assay_type>  (111) 
B

>  <src_id>  (111) 
15

>  <ligand_efficiency>  (111) 
{u'le': u'0.3', u'bei': u'15.21', u'sei': u'6.23', u'lle': u'4.64'}

>  <standard_flag>  (111) 
True

>  <molecule_chembl_id>  (111) 
CHEMBL1491

>  <target_organism>  (111) 
Homo sapiens

>  <standard_units>  (111) 
nM

>  <record_id>  (111) 
1539488

>  <document_chembl_id>  (111) 
CHEMBL1909046

>  <bao_format>  (111) 
BAO_0000249

>  <data_validity_description>  (111) 
None

>  <activity_id>  (111) 
7639292

>  <standard_type>  (111) 
IC50

>  <target_chembl_id>  (111) 
CHEMBL1867

>  <data_validity_comment>  (111) 
None

>  <published_value>  (111) 
0.602

>  <document_year>  (111) 
None

>  <target_pref_name>  (111) 
Alpha-2a adrenergic receptor

>  <assay_chembl_id>  (111) 
CHEMBL1909088

>  <standard_relation>  (111) 
=

>  <assay_description>  (111) 
DRUGMATRIX: Alpha-2A adrenergic receptor radioligand binding (ligand: MK-912)

>  <published_relation>  (111) 
=

>  <standard_value>  (111) 
602

>  <qudt_units>  (111) 
http://www.openphacts.org/units/Nanomolar

>  <target_tax_id>  (111) 
9606

>  <bao_label>  (111) 
cell membrane format

>  <published_units>  (111) 
uM

>  <pchembl_value>  (111) 
6.22

>  <published_type>  (111) 
IC50

>  <activity_comment>  (111) 
None

$$$$

     RDKit          

 14 14  0  0  0  0  0  0  0  0999 V2000
    0.0000    0.0000    0.0000 Cl  0  0  0  0  0  0  0  0  0  0  0  0
    0.0000    0.0000    0.0000 C   0  0  0  0  0  0  0  0  0  0  0  0
    0.0000    0.0000    0.0000 C   0  0  0  0  0  0  0  0  0  0  0  0
    0.0000    0.0000    0.0000 C   0  0  0  0  0  0  0  0  0  0  0  0
    0.0000    0.0000    0.0000 Cl  0  0  0  0  0  0  0  0  0  0  0  0
    0.0000    0.0000    0.0000 C   0  0  0  0  0  0  0  0  0  0  0  0
    0.0000    0.0000    0.0000 O   0  0  0  0  0  0  0  0  0  0  0  0
    0.0000    0.0000    0.0000 C   0  0  0  0  0  0  0  0  0  0  0  0
    0.0000    0.0000    0.0000 C   0  0  0  0  0  0  0  0  0  0  0  0
    0.0000    0.0000    0.0000 C   0  0  0  0  0  0  0  0  0  0  0  0
    0.0000    0.0000    0.0000 I   0  0  0  0  0  0  0  0  0  0  0  0
    0.0000    0.0000    0.0000 C   0  0  0  0  0  0  0  0  0  0  0  0
    0.0000    0.0000    0.0000 C   0  0  0  0  0  0  0  0  0  0  0  0
    0.0000    0.0000    0.0000 Cl  0  0  0  0  0  0  0  0  0  0  0  0
  1  2  1  0
  2  3  2  0
  3  4  1  0
  4  5  1  0
  4  6  2  0
  6  7  1  0
  7  8  1  0
  8  9  1  0
  9 10  3  0
 10 11  1  0
  6 12  1  0
 12 13  2  0
 13 14  1  0
 13  2  1  0
M  END
>  <pIC50>  (112) 
5.91

>  <ChEMBL_ID>  (112) 
CHEMBL1289

>  <document_journal>  (112) 
None

>  <bao_endpoint>  (112) 
BAO_0000190

>  <potential_duplicate>  (112) 
False

>  <uo_units>  (112) 
UO_0000065

>  <canonical_smiles>  (112) 
Clc1cc(Cl)c(OCC#CI)cc1Cl

>  <parent_molecule_chembl_id>  (112) 
CHEMBL1289

>  <assay_type>  (112) 
B

>  <src_id>  (112) 
15

>  <ligand_efficiency>  (112) 
{u'le': u'0.58', u'bei': u'16.36', u'sei': u'64.06', u'lle': u'1.18'}

>  <standard_flag>  (112) 
True

>  <molecule_chembl_id>  (112) 
CHEMBL1289

>  <target_organism>  (112) 
Homo sapiens

>  <standard_units>  (112) 
nM

>  <record_id>  (112) 
1539827

>  <document_chembl_id>  (112) 
CHEMBL1909046

>  <bao_format>  (112) 
BAO_0000249

>  <data_validity_description>  (112) 
None

>  <activity_id>  (112) 
7645142

>  <standard_type>  (112) 
IC50

>  <target_chembl_id>  (112) 
CHEMBL1867

>  <data_validity_comment>  (112) 
None

>  <published_value>  (112) 
1.222

>  <document_year>  (112) 
None

>  <target_pref_name>  (112) 
Alpha-2a adrenergic receptor

>  <assay_chembl_id>  (112) 
CHEMBL1909088

>  <standard_relation>  (112) 
=

>  <assay_description>  (112) 
DRUGMATRIX: Alpha-2A adrenergic receptor radioligand binding (ligand: MK-912)

>  <published_relation>  (112) 
=

>  <standard_value>  (112) 
1222

>  <qudt_units>  (112) 
http://www.openphacts.org/units/Nanomolar

>  <target_tax_id>  (112) 
9606

>  <bao_label>  (112) 
cell membrane format

>  <published_units>  (112) 
uM

>  <pchembl_value>  (112) 
5.91

>  <published_type>  (112) 
IC50

>  <activity_comment>  (112) 
None

$$$$

     RDKit          

 35 38  0  0  0  0  0  0  0  0999 V2000
    0.0000    0.0000    0.0000 C   0  0  0  0  0  0  0  0  0  0  0  0
    0.0000    0.0000    0.0000 C   0  0  0  0  0  0  0  0  0  0  0  0
    0.0000    0.0000    0.0000 C   0  0  0  0  0  0  0  0  0  0  0  0
    0.0000    0.0000    0.0000 C   0  0  0  0  0  0  0  0  0  0  0  0
    0.0000    0.0000    0.0000 C   0  0  0  0  0  0  0  0  0  0  0  0
    0.0000    0.0000    0.0000 C   0  0  0  0  0  0  0  0  0  0  0  0
    0.0000    0.0000    0.0000 C   0  0  0  0  0  0  0  0  0  0  0  0
    0.0000    0.0000    0.0000 C   0  0  0  0  0  0  0  0  0  0  0  0
    0.0000    0.0000    0.0000 C   0  0  0  0  0  0  0  0  0  0  0  0
    0.0000    0.0000    0.0000 C   0  0  0  0  0  0  0  0  0  0  0  0
    0.0000    0.0000    0.0000 C   0  0  0  0  0  0  0  0  0  0  0  0
    0.0000    0.0000    0.0000 O   0  0  0  0  0  0  0  0  0  0  0  0
    0.0000    0.0000    0.0000 C   0  0  0  0  0  0  0  0  0  0  0  0
    0.0000    0.0000    0.0000 C   0  0  0  0  0  0  0  0  0  0  0  0
    0.0000    0.0000    0.0000 C   0  0  0  0  0  0  0  0  0  0  0  0
    0.0000    0.0000    0.0000 N   0  0  0  0  0  0  0  0  0  0  0  0
    0.0000    0.0000    0.0000 C   0  0  0  0  0  0  0  0  0  0  0  0
    0.0000    0.0000    0.0000 C   0  0  0  0  0  0  0  0  0  0  0  0
    0.0000    0.0000    0.0000 C   0  0  0  0  0  0  0  0  0  0  0  0
    0.0000    0.0000    0.0000 C   0  0  0  0  0  0  0  0  0  0  0  0
    0.0000    0.0000    0.0000 C   0  0  0  0  0  0  0  0  0  0  0  0
    0.0000    0.0000    0.0000 O   0  0  0  0  0  0  0  0  0  0  0  0
    0.0000    0.0000    0.0000 C   0  0  0  0  0  0  0  0  0  0  0  0
    0.0000    0.0000    0.0000 C   0  0  0  0  0  0  0  0  0  0  0  0
    0.0000    0.0000    0.0000 C   0  0  0  0  0  0  0  0  0  0  0  0
    0.0000    0.0000    0.0000 C   0  0  0  0  0  0  0  0  0  0  0  0
    0.0000    0.0000    0.0000 C   0  0  0  0  0  0  0  0  0  0  0  0
    0.0000    0.0000    0.0000 C   0  0  0  0  0  0  0  0  0  0  0  0
    0.0000    0.0000    0.0000 C   0  0  0  0  0  0  0  0  0  0  0  0
    0.0000    0.0000    0.0000 C   0  0  0  0  0  0  0  0  0  0  0  0
    0.0000    0.0000    0.0000 C   0  0  0  0  0  0  0  0  0  0  0  0
    0.0000    0.0000    0.0000 C   0  0  0  0  0  0  0  0  0  0  0  0
    0.0000    0.0000    0.0000 C   0  0  0  0  0  0  0  0  0  0  0  0
    0.0000    0.0000    0.0000 C   0  0  0  0  0  0  0  0  0  0  0  0
    0.0000    0.0000    0.0000 C   0  0  0  0  0  0  0  0  0  0  0  0
  1  2  1  0
  2  3  1  0
  2  4  1  0
  2  5  1  0
  5  6  2  0
  6  7  1  0
  7  8  2  0
  8  9  1  0
  9 10  2  0
  8 11  1  0
 11 12  2  0
 11 13  1  0
 13 14  1  0
 14 15  1  0
 15 16  1  0
 16 17  1  0
 17 18  1  0
 18 19  1  0
 19 20  1  0
 20 21  1  0
 19 22  1  0
 22 23  1  0
 23 24  1  0
 24 25  2  0
 25 26  1  0
 26 27  2  0
 27 28  1  0
 28 29  2  0
 23 30  1  0
 30 31  2  0
 31 32  1  0
 32 33  2  0
 33 34  1  0
 34 35  2  0
 10  5  1  0
 21 16  1  0
 29 24  1  0
 35 30  1  0
M  END
>  <pIC50>  (113) 
6.08

>  <ChEMBL_ID>  (113) 
CHEMBL305660

>  <document_journal>  (113) 
None

>  <bao_endpoint>  (113) 
BAO_0000190

>  <potential_duplicate>  (113) 
False

>  <uo_units>  (113) 
UO_0000065

>  <canonical_smiles>  (113) 
CC(C)(C)c1ccc(cc1)C(=O)CCCN2CCC(CC2)OC(c3ccccc3)c4ccccc4

>  <parent_molecule_chembl_id>  (113) 
CHEMBL305660

>  <assay_type>  (113) 
B

>  <src_id>  (113) 
15

>  <ligand_efficiency>  (113) 
{u'le': u'0.24', u'bei': u'12.95', u'sei': u'20.58', u'lle': u'-0.5'}

>  <standard_flag>  (113) 
True

>  <molecule_chembl_id>  (113) 
CHEMBL305660

>  <target_organism>  (113) 
Homo sapiens

>  <standard_units>  (113) 
nM

>  <record_id>  (113) 
1539723

>  <document_chembl_id>  (113) 
CHEMBL1909046

>  <bao_format>  (113) 
BAO_0000249

>  <data_validity_description>  (113) 
None

>  <activity_id>  (113) 
7647642

>  <standard_type>  (113) 
IC50

>  <target_chembl_id>  (113) 
CHEMBL1867

>  <data_validity_comment>  (113) 
None

>  <published_value>  (113) 
0.8316

>  <document_year>  (113) 
None

>  <target_pref_name>  (113) 
Alpha-2a adrenergic receptor

>  <assay_chembl_id>  (113) 
CHEMBL1909088

>  <standard_relation>  (113) 
=

>  <assay_description>  (113) 
DRUGMATRIX: Alpha-2A adrenergic receptor radioligand binding (ligand: MK-912)

>  <published_relation>  (113) 
=

>  <standard_value>  (113) 
831.6

>  <qudt_units>  (113) 
http://www.openphacts.org/units/Nanomolar

>  <target_tax_id>  (113) 
9606

>  <bao_label>  (113) 
cell membrane format

>  <published_units>  (113) 
uM

>  <pchembl_value>  (113) 
6.08

>  <published_type>  (113) 
IC50

>  <activity_comment>  (113) 
None

$$$$

     RDKit          

 28 30  0  0  0  0  0  0  0  0999 V2000
    0.0000    0.0000    0.0000 C   0  0  0  0  0  0  0  0  0  0  0  0
    0.0000    0.0000    0.0000 N   0  0  0  0  0  0  0  0  0  0  0  0
    0.0000    0.0000    0.0000 C   0  0  0  0  0  0  0  0  0  0  0  0
    0.0000    0.0000    0.0000 C   0  0  0  0  0  0  0  0  0  0  0  0
    0.0000    0.0000    0.0000 C   0  0  0  0  0  0  0  0  0  0  0  0
    0.0000    0.0000    0.0000 C   0  0  0  0  0  0  0  0  0  0  0  0
    0.0000    0.0000    0.0000 C   0  0  0  0  0  0  0  0  0  0  0  0
    0.0000    0.0000    0.0000 C   0  0  0  0  0  0  0  0  0  0  0  0
    0.0000    0.0000    0.0000 C   0  0  0  0  0  0  0  0  0  0  0  0
    0.0000    0.0000    0.0000 C   0  0  0  0  0  0  0  0  0  0  0  0
    0.0000    0.0000    0.0000 C   0  0  0  0  0  0  0  0  0  0  0  0
    0.0000    0.0000    0.0000 C   0  0  0  0  0  0  0  0  0  0  0  0
    0.0000    0.0000    0.0000 C   0  0  0  0  0  0  0  0  0  0  0  0
    0.0000    0.0000    0.0000 C   0  0  0  0  0  0  0  0  0  0  0  0
    0.0000    0.0000    0.0000 N   0  0  0  0  0  0  0  0  0  0  0  0
    0.0000    0.0000    0.0000 C   0  0  0  0  0  0  0  0  0  0  0  0
    0.0000    0.0000    0.0000 C   0  0  0  0  0  0  0  0  0  0  0  0
    0.0000    0.0000    0.0000 C   0  0  0  0  0  0  0  0  0  0  0  0
    0.0000    0.0000    0.0000 C   0  0  0  0  0  0  0  0  0  0  0  0
    0.0000    0.0000    0.0000 C   0  0  0  0  0  0  0  0  0  0  0  0
    0.0000    0.0000    0.0000 C   0  0  0  0  0  0  0  0  0  0  0  0
    0.0000    0.0000    0.0000 C   0  0  0  0  0  0  0  0  0  0  0  0
    0.0000    0.0000    0.0000 C   0  0  0  0  0  0  0  0  0  0  0  0
    0.0000    0.0000    0.0000 C   0  0  0  0  0  0  0  0  0  0  0  0
    0.0000    0.0000    0.0000 C   0  0  0  0  0  0  0  0  0  0  0  0
    0.0000    0.0000    0.0000 N   0  0  0  0  0  0  0  0  0  0  0  0
    0.0000    0.0000    0.0000 C   0  0  0  0  0  0  0  0  0  0  0  0
    0.0000    0.0000    0.0000 C   0  0  0  0  0  0  0  0  0  0  0  0
  1  2  1  0
  2  3  1  0
  2  4  1  0
  4  5  2  0
  5  6  1  0
  6  7  2  0
  7  8  1  0
  8  9  2  0
  7 10  1  0
 10 11  2  3
 11 12  1  0
 12 13  2  0
 13 14  1  0
 14 15  2  3
 15 16  1  0
 15 17  1  0
 14 18  1  0
 18 19  2  0
 10 20  1  0
 20 21  2  0
 21 22  1  0
 22 23  2  0
 23 24  1  0
 24 25  2  0
 23 26  1  0
 26 27  1  0
 26 28  1  0
  9  4  1  0
 19 11  1  0
 25 20  1  0
M  CHG  1  15   1
M  END
>  <pIC50>  (114) 
6.27

>  <ChEMBL_ID>  (114) 
CHEMBL64894

>  <document_journal>  (114) 
None

>  <bao_endpoint>  (114) 
BAO_0000190

>  <potential_duplicate>  (114) 
False

>  <uo_units>  (114) 
UO_0000065

>  <canonical_smiles>  (114) 
[Cl-].CN(C)c1ccc(cc1)C(=C2C=CC(=[N+](C)C)C=C2)c3ccc(cc3)N(C)C

>  <parent_molecule_chembl_id>  (114) 
CHEMBL459265

>  <assay_type>  (114) 
B

>  <src_id>  (114) 
15

>  <ligand_efficiency>  (114) 
{u'le': u'0.31', u'bei': u'16.83', u'sei': u'66.08', u'lle': u'1.35'}

>  <standard_flag>  (114) 
True

>  <molecule_chembl_id>  (114) 
CHEMBL64894

>  <target_organism>  (114) 
Homo sapiens

>  <standard_units>  (114) 
nM

>  <record_id>  (114) 
1539804

>  <document_chembl_id>  (114) 
CHEMBL1909046

>  <bao_format>  (114) 
BAO_0000249

>  <data_validity_description>  (114) 
None

>  <activity_id>  (114) 
7649103

>  <standard_type>  (114) 
IC50

>  <target_chembl_id>  (114) 
CHEMBL1867

>  <data_validity_comment>  (114) 
None

>  <published_value>  (114) 
0.536

>  <document_year>  (114) 
None

>  <target_pref_name>  (114) 
Alpha-2a adrenergic receptor

>  <assay_chembl_id>  (114) 
CHEMBL1909088

>  <standard_relation>  (114) 
=

>  <assay_description>  (114) 
DRUGMATRIX: Alpha-2A adrenergic receptor radioligand binding (ligand: MK-912)

>  <published_relation>  (114) 
=

>  <standard_value>  (114) 
536

>  <qudt_units>  (114) 
http://www.openphacts.org/units/Nanomolar

>  <target_tax_id>  (114) 
9606

>  <bao_label>  (114) 
cell membrane format

>  <published_units>  (114) 
uM

>  <pchembl_value>  (114) 
6.27

>  <published_type>  (114) 
IC50

>  <activity_comment>  (114) 
None

$$$$

     RDKit          

 24 26  0  0  0  0  0  0  0  0999 V2000
    0.0000    0.0000    0.0000 Cl  0  0  0  0  0  0  0  0  0  0  0  0
    0.0000    0.0000    0.0000 C   0  0  0  0  0  0  0  0  0  0  0  0
    0.0000    0.0000    0.0000 C   0  0  0  0  0  0  0  0  0  0  0  0
    0.0000    0.0000    0.0000 C   0  0  0  0  0  0  0  0  0  0  0  0
    0.0000    0.0000    0.0000 C   0  0  0  0  0  0  0  0  0  0  0  0
    0.0000    0.0000    0.0000 C   0  0  0  0  0  0  0  0  0  0  0  0
    0.0000    0.0000    0.0000 O   0  0  0  0  0  0  0  0  0  0  0  0
    0.0000    0.0000    0.0000 C   0  0  0  0  0  0  0  0  0  0  0  0
    0.0000    0.0000    0.0000 C   0  0  0  0  0  0  0  0  0  0  0  0
    0.0000    0.0000    0.0000 N   0  0  0  0  0  0  0  0  0  0  0  0
    0.0000    0.0000    0.0000 C   0  0  0  0  0  0  0  0  0  0  0  0
    0.0000    0.0000    0.0000 C   0  0  0  0  0  0  0  0  0  0  0  0
    0.0000    0.0000    0.0000 N   0  0  0  0  0  0  0  0  0  0  0  0
    0.0000    0.0000    0.0000 C   0  0  0  0  0  0  0  0  0  0  0  0
    0.0000    0.0000    0.0000 C   0  0  0  0  0  0  0  0  0  0  0  0
    0.0000    0.0000    0.0000 C   0  0  0  0  0  0  0  0  0  0  0  0
    0.0000    0.0000    0.0000 C   0  0  0  0  0  0  0  0  0  0  0  0
    0.0000    0.0000    0.0000 C   0  0  0  0  0  0  0  0  0  0  0  0
    0.0000    0.0000    0.0000 Cl  0  0  0  0  0  0  0  0  0  0  0  0
    0.0000    0.0000    0.0000 C   0  0  0  0  0  0  0  0  0  0  0  0
    0.0000    0.0000    0.0000 C   0  0  0  0  0  0  0  0  0  0  0  0
    0.0000    0.0000    0.0000 Cl  0  0  0  0  0  0  0  0  0  0  0  0
    0.0000    0.0000    0.0000 C   0  0  0  0  0  0  0  0  0  0  0  0
    0.0000    0.0000    0.0000 C   0  0  0  0  0  0  0  0  0  0  0  0
  1  2  1  0
  2  3  2  0
  3  4  1  0
  4  5  2  0
  5  6  1  0
  6  7  1  0
  7  8  1  0
  8  9  1  0
  9 10  1  0
 10 11  1  0
 11 12  2  0
 12 13  1  0
 13 14  2  0
  8 15  1  0
 15 16  2  0
 16 17  1  0
 17 18  2  0
 18 19  1  0
 18 20  1  0
 20 21  2  0
 21 22  1  0
  5 23  1  0
 23 24  2  0
 24  2  1  0
 14 10  1  0
 21 15  1  0
M  END
>  <pIC50>  (115) 
5.36

>  <ChEMBL_ID>  (115) 
CHEMBL808

>  <document_journal>  (115) 
None

>  <bao_endpoint>  (115) 
BAO_0000190

>  <potential_duplicate>  (115) 
False

>  <uo_units>  (115) 
UO_0000065

>  <canonical_smiles>  (115) 
Clc1ccc(COC(Cn2ccnc2)c3ccc(Cl)cc3Cl)cc1

>  <parent_molecule_chembl_id>  (115) 
CHEMBL808

>  <assay_type>  (115) 
B

>  <src_id>  (115) 
15

>  <ligand_efficiency>  (115) 
{u'le': u'0.31', u'bei': u'14.05', u'sei': u'19.83', u'lle': u'0.38'}

>  <standard_flag>  (115) 
True

>  <molecule_chembl_id>  (115) 
CHEMBL808

>  <target_organism>  (115) 
Homo sapiens

>  <standard_units>  (115) 
nM

>  <record_id>  (115) 
1539724

>  <document_chembl_id>  (115) 
CHEMBL1909046

>  <bao_format>  (115) 
BAO_0000249

>  <data_validity_description>  (115) 
None

>  <activity_id>  (115) 
7649896

>  <standard_type>  (115) 
IC50

>  <target_chembl_id>  (115) 
CHEMBL1867

>  <data_validity_comment>  (115) 
None

>  <published_value>  (115) 
4.325

>  <document_year>  (115) 
None

>  <target_pref_name>  (115) 
Alpha-2a adrenergic receptor

>  <assay_chembl_id>  (115) 
CHEMBL1909088

>  <standard_relation>  (115) 
=

>  <assay_description>  (115) 
DRUGMATRIX: Alpha-2A adrenergic receptor radioligand binding (ligand: MK-912)

>  <published_relation>  (115) 
=

>  <standard_value>  (115) 
4325

>  <qudt_units>  (115) 
http://www.openphacts.org/units/Nanomolar

>  <target_tax_id>  (115) 
9606

>  <bao_label>  (115) 
cell membrane format

>  <published_units>  (115) 
uM

>  <pchembl_value>  (115) 
5.36

>  <published_type>  (115) 
IC50

>  <activity_comment>  (115) 
None

$$$$

     RDKit          

 13 13  0  0  0  0  0  0  0  0999 V2000
    0.0000    0.0000    0.0000 C   0  0  0  0  0  0  0  0  0  0  0  0
    0.0000    0.0000    0.0000 N   0  0  0  0  0  0  0  0  0  0  0  0
    0.0000    0.0000    0.0000 C   0  0  0  0  0  0  0  0  0  0  0  0
    0.0000    0.0000    0.0000 C   0  0  0  0  0  0  0  0  0  0  0  0
    0.0000    0.0000    0.0000 O   0  0  0  0  0  0  0  0  0  0  0  0
    0.0000    0.0000    0.0000 C   0  0  0  0  0  0  0  0  0  0  0  0
    0.0000    0.0000    0.0000 C   0  0  0  0  0  0  0  0  0  0  0  0
    0.0000    0.0000    0.0000 C   0  0  0  0  0  0  0  0  0  0  0  0
    0.0000    0.0000    0.0000 C   0  0  0  0  0  0  0  0  0  0  0  0
    0.0000    0.0000    0.0000 O   0  0  0  0  0  0  0  0  0  0  0  0
    0.0000    0.0000    0.0000 C   0  0  0  0  0  0  0  0  0  0  0  0
    0.0000    0.0000    0.0000 O   0  0  0  0  0  0  0  0  0  0  0  0
    0.0000    0.0000    0.0000 C   0  0  0  0  0  0  0  0  0  0  0  0
  1  2  1  0
  2  3  1  0
  3  4  1  0
  4  5  1  0
  4  6  1  0
  6  7  2  0
  7  8  1  0
  8  9  2  0
  9 10  1  0
  9 11  1  0
 11 12  1  0
 11 13  2  0
 13  6  1  0
M  END
>  <pIC50>  (116) 
6.13

>  <ChEMBL_ID>  (116) 
CHEMBL679

>  <document_journal>  (116) 
None

>  <bao_endpoint>  (116) 
BAO_0000190

>  <potential_duplicate>  (116) 
False

>  <uo_units>  (116) 
UO_0000065

>  <canonical_smiles>  (116) 
CNC[C@H](O)c1ccc(O)c(O)c1

>  <parent_molecule_chembl_id>  (116) 
CHEMBL679

>  <assay_type>  (116) 
B

>  <src_id>  (116) 
15

>  <ligand_efficiency>  (116) 
{u'le': u'0.64', u'bei': u'33.47', u'sei': u'8.43', u'lle': u'5.76'}

>  <standard_flag>  (116) 
True

>  <molecule_chembl_id>  (116) 
CHEMBL679

>  <target_organism>  (116) 
Homo sapiens

>  <standard_units>  (116) 
nM

>  <record_id>  (116) 
1539732

>  <document_chembl_id>  (116) 
CHEMBL1909046

>  <bao_format>  (116) 
BAO_0000249

>  <data_validity_description>  (116) 
None

>  <activity_id>  (116) 
7649983

>  <standard_type>  (116) 
IC50

>  <target_chembl_id>  (116) 
CHEMBL1867

>  <data_validity_comment>  (116) 
None

>  <published_value>  (116) 
0.737

>  <document_year>  (116) 
None

>  <target_pref_name>  (116) 
Alpha-2a adrenergic receptor

>  <assay_chembl_id>  (116) 
CHEMBL1909088

>  <standard_relation>  (116) 
=

>  <assay_description>  (116) 
DRUGMATRIX: Alpha-2A adrenergic receptor radioligand binding (ligand: MK-912)

>  <published_relation>  (116) 
=

>  <standard_value>  (116) 
737

>  <qudt_units>  (116) 
http://www.openphacts.org/units/Nanomolar

>  <target_tax_id>  (116) 
9606

>  <bao_label>  (116) 
cell membrane format

>  <published_units>  (116) 
uM

>  <pchembl_value>  (116) 
6.13

>  <published_type>  (116) 
IC50

>  <activity_comment>  (116) 
None

$$$$

     RDKit          

 14 14  0  0  0  0  0  0  0  0999 V2000
    0.0000    0.0000    0.0000 N   0  0  0  0  0  0  0  0  0  0  0  0
    0.0000    0.0000    0.0000 C   0  0  0  0  0  0  0  0  0  0  0  0
    0.0000    0.0000    0.0000 N   0  0  0  0  0  0  0  0  0  0  0  0
    0.0000    0.0000    0.0000 N   0  0  0  0  0  0  0  0  0  0  0  0
    0.0000    0.0000    0.0000 N   0  0  0  0  0  0  0  0  0  0  0  0
    0.0000    0.0000    0.0000 C   0  0  0  0  0  0  0  0  0  0  0  0
    0.0000    0.0000    0.0000 C   0  0  0  0  0  0  0  0  0  0  0  0
    0.0000    0.0000    0.0000 C   0  0  0  0  0  0  0  0  0  0  0  0
    0.0000    0.0000    0.0000 Cl  0  0  0  0  0  0  0  0  0  0  0  0
    0.0000    0.0000    0.0000 C   0  0  0  0  0  0  0  0  0  0  0  0
    0.0000    0.0000    0.0000 C   0  0  0  0  0  0  0  0  0  0  0  0
    0.0000    0.0000    0.0000 C   0  0  0  0  0  0  0  0  0  0  0  0
    0.0000    0.0000    0.0000 C   0  0  0  0  0  0  0  0  0  0  0  0
    0.0000    0.0000    0.0000 Cl  0  0  0  0  0  0  0  0  0  0  0  0
  1  2  1  0
  2  3  2  0
  2  4  1  0
  4  5  1  0
  5  6  2  0
  6  7  1  0
  7  8  2  0
  8  9  1  0
  8 10  1  0
 10 11  2  0
 11 12  1  0
 12 13  2  0
 13 14  1  0
 13  7  1  0
M  END
>  <pIC50>  (117) 
7.39

>  <ChEMBL_ID>  (117) 
CHEMBL420

>  <document_journal>  (117) 
None

>  <bao_endpoint>  (117) 
BAO_0000190

>  <potential_duplicate>  (117) 
False

>  <uo_units>  (117) 
UO_0000065

>  <canonical_smiles>  (117) 
NC(=N)N\N=C\c1c(Cl)cccc1Cl

>  <parent_molecule_chembl_id>  (117) 
CHEMBL420

>  <assay_type>  (117) 
B

>  <src_id>  (117) 
15

>  <ligand_efficiency>  (117) 
{u'le': u'0.72', u'bei': u'31.97', u'sei': u'9.95', u'lle': u'5.2'}

>  <standard_flag>  (117) 
True

>  <molecule_chembl_id>  (117) 
CHEMBL420

>  <target_organism>  (117) 
Homo sapiens

>  <standard_units>  (117) 
nM

>  <record_id>  (117) 
1539821

>  <document_chembl_id>  (117) 
CHEMBL1909046

>  <bao_format>  (117) 
BAO_0000249

>  <data_validity_description>  (117) 
None

>  <activity_id>  (117) 
7653663

>  <standard_type>  (117) 
IC50

>  <target_chembl_id>  (117) 
CHEMBL1867

>  <data_validity_comment>  (117) 
None

>  <published_value>  (117) 
0.041

>  <document_year>  (117) 
None

>  <target_pref_name>  (117) 
Alpha-2a adrenergic receptor

>  <assay_chembl_id>  (117) 
CHEMBL1909088

>  <standard_relation>  (117) 
=

>  <assay_description>  (117) 
DRUGMATRIX: Alpha-2A adrenergic receptor radioligand binding (ligand: MK-912)

>  <published_relation>  (117) 
=

>  <standard_value>  (117) 
41

>  <qudt_units>  (117) 
http://www.openphacts.org/units/Nanomolar

>  <target_tax_id>  (117) 
9606

>  <bao_label>  (117) 
cell membrane format

>  <published_units>  (117) 
uM

>  <pchembl_value>  (117) 
7.39

>  <published_type>  (117) 
IC50

>  <activity_comment>  (117) 
None

$$$$

     RDKit          

 21 22  0  0  0  0  0  0  0  0999 V2000
    0.0000    0.0000    0.0000 O   0  0  0  0  0  0  0  0  0  0  0  0
    0.0000    0.0000    0.0000 C   0  0  0  0  0  0  0  0  0  0  0  0
    0.0000    0.0000    0.0000 C   0  0  0  0  0  0  0  0  0  0  0  0
    0.0000    0.0000    0.0000 Cl  0  0  0  0  0  0  0  0  0  0  0  0
    0.0000    0.0000    0.0000 C   0  0  0  0  0  0  0  0  0  0  0  0
    0.0000    0.0000    0.0000 C   0  0  0  0  0  0  0  0  0  0  0  0
    0.0000    0.0000    0.0000 Cl  0  0  0  0  0  0  0  0  0  0  0  0
    0.0000    0.0000    0.0000 C   0  0  0  0  0  0  0  0  0  0  0  0
    0.0000    0.0000    0.0000 Cl  0  0  0  0  0  0  0  0  0  0  0  0
    0.0000    0.0000    0.0000 C   0  0  0  0  0  0  0  0  0  0  0  0
    0.0000    0.0000    0.0000 C   0  0  0  0  0  0  0  0  0  0  0  0
    0.0000    0.0000    0.0000 C   0  0  0  0  0  0  0  0  0  0  0  0
    0.0000    0.0000    0.0000 C   0  0  0  0  0  0  0  0  0  0  0  0
    0.0000    0.0000    0.0000 O   0  0  0  0  0  0  0  0  0  0  0  0
    0.0000    0.0000    0.0000 C   0  0  0  0  0  0  0  0  0  0  0  0
    0.0000    0.0000    0.0000 Cl  0  0  0  0  0  0  0  0  0  0  0  0
    0.0000    0.0000    0.0000 C   0  0  0  0  0  0  0  0  0  0  0  0
    0.0000    0.0000    0.0000 C   0  0  0  0  0  0  0  0  0  0  0  0
    0.0000    0.0000    0.0000 Cl  0  0  0  0  0  0  0  0  0  0  0  0
    0.0000    0.0000    0.0000 C   0  0  0  0  0  0  0  0  0  0  0  0
    0.0000    0.0000    0.0000 Cl  0  0  0  0  0  0  0  0  0  0  0  0
  1  2  1  0
  2  3  2  0
  3  4  1  0
  3  5  1  0
  5  6  2  0
  6  7  1  0
  6  8  1  0
  8  9  1  0
  8 10  2  0
 10 11  1  0
 11 12  1  0
 12 13  2  0
 13 14  1  0
 13 15  1  0
 15 16  1  0
 15 17  2  0
 17 18  1  0
 18 19  1  0
 18 20  2  0
 20 21  1  0
 10  2  1  0
 20 12  1  0
M  END
>  <pIC50>  (118) 
5.26

>  <ChEMBL_ID>  (118) 
CHEMBL496

>  <document_journal>  (118) 
None

>  <bao_endpoint>  (118) 
BAO_0000190

>  <potential_duplicate>  (118) 
False

>  <uo_units>  (118) 
UO_0000065

>  <canonical_smiles>  (118) 
Oc1c(Cl)cc(Cl)c(Cl)c1Cc2c(O)c(Cl)cc(Cl)c2Cl

>  <parent_molecule_chembl_id>  (118) 
CHEMBL496

>  <assay_type>  (118) 
B

>  <src_id>  (118) 
15

>  <ligand_efficiency>  (118) 
{u'le': u'0.34', u'bei': u'12.93', u'sei': u'13', u'lle': u'-2.05'}

>  <standard_flag>  (118) 
True

>  <molecule_chembl_id>  (118) 
CHEMBL496

>  <target_organism>  (118) 
Homo sapiens

>  <standard_units>  (118) 
nM

>  <record_id>  (118) 
1539829

>  <document_chembl_id>  (118) 
CHEMBL1909046

>  <bao_format>  (118) 
BAO_0000249

>  <data_validity_description>  (118) 
None

>  <activity_id>  (118) 
7653719

>  <standard_type>  (118) 
IC50

>  <target_chembl_id>  (118) 
CHEMBL1867

>  <data_validity_comment>  (118) 
None

>  <published_value>  (118) 
5.4965

>  <document_year>  (118) 
None

>  <target_pref_name>  (118) 
Alpha-2a adrenergic receptor

>  <assay_chembl_id>  (118) 
CHEMBL1909088

>  <standard_relation>  (118) 
=

>  <assay_description>  (118) 
DRUGMATRIX: Alpha-2A adrenergic receptor radioligand binding (ligand: MK-912)

>  <published_relation>  (118) 
=

>  <standard_value>  (118) 
5496.5

>  <qudt_units>  (118) 
http://www.openphacts.org/units/Nanomolar

>  <target_tax_id>  (118) 
9606

>  <bao_label>  (118) 
cell membrane format

>  <published_units>  (118) 
uM

>  <pchembl_value>  (118) 
5.26

>  <published_type>  (118) 
IC50

>  <activity_comment>  (118) 
None

$$$$

     RDKit          

 35 39  0  0  0  0  0  0  0  0999 V2000
    0.0000    0.0000    0.0000 C   0  0  0  0  0  0  0  0  0  0  0  0
    0.0000    0.0000    0.0000 C   0  0  0  0  0  0  0  0  0  0  0  0
    0.0000    0.0000    0.0000 C   0  0  0  0  0  0  0  0  0  0  0  0
    0.0000    0.0000    0.0000 C   0  0  0  0  0  0  0  0  0  0  0  0
    0.0000    0.0000    0.0000 N   0  0  0  0  0  0  0  0  0  0  0  0
    0.0000    0.0000    0.0000 C   0  0  0  0  0  0  0  0  0  0  0  0
    0.0000    0.0000    0.0000 C   0  0  0  0  0  0  0  0  0  0  0  0
    0.0000    0.0000    0.0000 C   0  0  0  0  0  0  0  0  0  0  0  0
    0.0000    0.0000    0.0000 C   0  0  0  0  0  0  0  0  0  0  0  0
    0.0000    0.0000    0.0000 C   0  0  0  0  0  0  0  0  0  0  0  0
    0.0000    0.0000    0.0000 O   0  0  0  0  0  0  0  0  0  0  0  0
    0.0000    0.0000    0.0000 C   0  0  0  0  0  0  0  0  0  0  0  0
    0.0000    0.0000    0.0000 C   0  0  0  0  0  0  0  0  0  0  0  0
    0.0000    0.0000    0.0000 O   0  0  0  0  0  0  0  0  0  0  0  0
    0.0000    0.0000    0.0000 C   0  0  0  0  0  0  0  0  0  0  0  0
    0.0000    0.0000    0.0000 C   0  0  0  0  0  0  0  0  0  0  0  0
    0.0000    0.0000    0.0000 C   0  0  0  0  0  0  0  0  0  0  0  0
    0.0000    0.0000    0.0000 C   0  0  0  0  0  0  0  0  0  0  0  0
    0.0000    0.0000    0.0000 C   0  0  0  0  0  0  0  0  0  0  0  0
    0.0000    0.0000    0.0000 C   0  0  0  0  0  0  0  0  0  0  0  0
    0.0000    0.0000    0.0000 C   0  0  0  0  0  0  0  0  0  0  0  0
    0.0000    0.0000    0.0000 C   0  0  0  0  0  0  0  0  0  0  0  0
    0.0000    0.0000    0.0000 N   0  0  0  0  0  0  0  0  0  0  0  0
    0.0000    0.0000    0.0000 C   0  0  0  0  0  0  0  0  0  0  0  0
    0.0000    0.0000    0.0000 C   0  0  0  0  0  0  0  0  0  0  0  0
    0.0000    0.0000    0.0000 C   0  0  0  0  0  0  0  0  0  0  0  0
    0.0000    0.0000    0.0000 C   0  0  0  0  0  0  0  0  0  0  0  0
    0.0000    0.0000    0.0000 C   0  0  0  0  0  0  0  0  0  0  0  0
    0.0000    0.0000    0.0000 O   0  0  0  0  0  0  0  0  0  0  0  0
    0.0000    0.0000    0.0000 C   0  0  0  0  0  0  0  0  0  0  0  0
    0.0000    0.0000    0.0000 C   0  0  0  0  0  0  0  0  0  0  0  0
    0.0000    0.0000    0.0000 O   0  0  0  0  0  0  0  0  0  0  0  0
    0.0000    0.0000    0.0000 C   0  0  0  0  0  0  0  0  0  0  0  0
    0.0000    0.0000    0.0000 C   0  0  0  0  0  0  0  0  0  0  0  0
    0.0000    0.0000    0.0000 C   0  0  0  0  0  0  0  0  0  0  0  0
  1  2  1  0
  2  3  1  0
  3  4  1  0
  4  5  1  0
  5  6  1  0
  6  7  1  0
  7  8  1  0
  8  9  2  0
  9 10  1  0
 10 11  1  0
 11 12  1  0
 10 13  2  0
 13 14  1  0
 14 15  1  0
 13 16  1  0
 16 17  2  0
 17 18  1  0
 18 19  1  0
 19 20  1  0
 20 21  1  0
 21 22  1  0
 22 23  1  0
 23 24  1  0
 24 25  1  0
 25 26  1  0
 26 27  2  0
 27 28  1  0
 28 29  1  0
 29 30  1  0
 28 31  2  0
 31 32  1  0
 32 33  1  0
 31 34  1  0
 34 35  2  0
 20  3  1  0
 18  5  1  0
 17  8  1  0
 35 22  1  0
 35 26  1  0
M  END
>  <pIC50>  (119) 
7.42

>  <ChEMBL_ID>  (119) 
CHEMBL50588

>  <document_journal>  (119) 
None

>  <bao_endpoint>  (119) 
BAO_0000190

>  <potential_duplicate>  (119) 
False

>  <uo_units>  (119) 
UO_0000065

>  <canonical_smiles>  (119) 
CC[C@H]1CN2CCc3cc(OC)c(OC)cc3[C@@H]2C[C@@H]1C[C@H]4NCCc5cc(OC)c(OC)cc45

>  <parent_molecule_chembl_id>  (119) 
CHEMBL50588

>  <assay_type>  (119) 
B

>  <src_id>  (119) 
15

>  <ligand_efficiency>  (119) 
{u'le': u'0.29', u'bei': u'15.44', u'sei': u'14.22', u'lle': u'2.47'}

>  <standard_flag>  (119) 
True

>  <molecule_chembl_id>  (119) 
CHEMBL50588

>  <target_organism>  (119) 
Homo sapiens

>  <standard_units>  (119) 
nM

>  <record_id>  (119) 
1539726

>  <document_chembl_id>  (119) 
CHEMBL1909046

>  <bao_format>  (119) 
BAO_0000249

>  <data_validity_description>  (119) 
None

>  <activity_id>  (119) 
7658403

>  <standard_type>  (119) 
IC50

>  <target_chembl_id>  (119) 
CHEMBL1867

>  <data_validity_comment>  (119) 
None

>  <published_value>  (119) 
0.038

>  <document_year>  (119) 
None

>  <target_pref_name>  (119) 
Alpha-2a adrenergic receptor

>  <assay_chembl_id>  (119) 
CHEMBL1909088

>  <standard_relation>  (119) 
=

>  <assay_description>  (119) 
DRUGMATRIX: Alpha-2A adrenergic receptor radioligand binding (ligand: MK-912)

>  <published_relation>  (119) 
=

>  <standard_value>  (119) 
38

>  <qudt_units>  (119) 
http://www.openphacts.org/units/Nanomolar

>  <target_tax_id>  (119) 
9606

>  <bao_label>  (119) 
cell membrane format

>  <published_units>  (119) 
uM

>  <pchembl_value>  (119) 
7.42

>  <published_type>  (119) 
IC50

>  <activity_comment>  (119) 
None

$$$$

     RDKit          

 15 15  0  0  0  0  0  0  0  0999 V2000
    0.0000    0.0000    0.0000 N   0  0  0  0  0  0  0  0  0  0  0  0
    0.0000    0.0000    0.0000 C   0  0  0  0  0  0  0  0  0  0  0  0
    0.0000    0.0000    0.0000 N   0  0  0  0  0  0  0  0  0  0  0  0
    0.0000    0.0000    0.0000 N   0  0  0  0  0  0  0  0  0  0  0  0
    0.0000    0.0000    0.0000 C   0  0  0  0  0  0  0  0  0  0  0  0
    0.0000    0.0000    0.0000 O   0  0  0  0  0  0  0  0  0  0  0  0
    0.0000    0.0000    0.0000 C   0  0  0  0  0  0  0  0  0  0  0  0
    0.0000    0.0000    0.0000 C   0  0  0  0  0  0  0  0  0  0  0  0
    0.0000    0.0000    0.0000 C   0  0  0  0  0  0  0  0  0  0  0  0
    0.0000    0.0000    0.0000 Cl  0  0  0  0  0  0  0  0  0  0  0  0
    0.0000    0.0000    0.0000 C   0  0  0  0  0  0  0  0  0  0  0  0
    0.0000    0.0000    0.0000 C   0  0  0  0  0  0  0  0  0  0  0  0
    0.0000    0.0000    0.0000 C   0  0  0  0  0  0  0  0  0  0  0  0
    0.0000    0.0000    0.0000 C   0  0  0  0  0  0  0  0  0  0  0  0
    0.0000    0.0000    0.0000 Cl  0  0  0  0  0  0  0  0  0  0  0  0
  1  2  1  0
  2  3  2  0
  2  4  1  0
  4  5  1  0
  5  6  2  0
  5  7  1  0
  7  8  1  0
  8  9  2  0
  9 10  1  0
  9 11  1  0
 11 12  2  0
 12 13  1  0
 13 14  2  0
 14 15  1  0
 14  8  1  0
M  END
>  <pIC50>  (120) 
6.87

>  <ChEMBL_ID>  (120) 
CHEMBL862

>  <document_journal>  (120) 
None

>  <bao_endpoint>  (120) 
BAO_0000190

>  <potential_duplicate>  (120) 
False

>  <uo_units>  (120) 
UO_0000065

>  <canonical_smiles>  (120) 
NC(=N)NC(=O)Cc1c(Cl)cccc1Cl

>  <parent_molecule_chembl_id>  (120) 
CHEMBL862

>  <assay_type>  (120) 
B

>  <src_id>  (120) 
15

>  <ligand_efficiency>  (120) 
{u'le': u'0.63', u'bei': u'27.93', u'sei': u'8.7', u'lle': u'4.84'}

>  <standard_flag>  (120) 
True

>  <molecule_chembl_id>  (120) 
CHEMBL862

>  <target_organism>  (120) 
Homo sapiens

>  <standard_units>  (120) 
nM

>  <record_id>  (120) 
1539823

>  <document_chembl_id>  (120) 
CHEMBL1909046

>  <bao_format>  (120) 
BAO_0000249

>  <data_validity_description>  (120) 
None

>  <activity_id>  (120) 
7662160

>  <standard_type>  (120) 
IC50

>  <target_chembl_id>  (120) 
CHEMBL1867

>  <data_validity_comment>  (120) 
None

>  <published_value>  (120) 
0.134

>  <document_year>  (120) 
None

>  <target_pref_name>  (120) 
Alpha-2a adrenergic receptor

>  <assay_chembl_id>  (120) 
CHEMBL1909088

>  <standard_relation>  (120) 
=

>  <assay_description>  (120) 
DRUGMATRIX: Alpha-2A adrenergic receptor radioligand binding (ligand: MK-912)

>  <published_relation>  (120) 
=

>  <standard_value>  (120) 
134

>  <qudt_units>  (120) 
http://www.openphacts.org/units/Nanomolar

>  <target_tax_id>  (120) 
9606

>  <bao_label>  (120) 
cell membrane format

>  <published_units>  (120) 
uM

>  <pchembl_value>  (120) 
6.87

>  <published_type>  (120) 
IC50

>  <activity_comment>  (120) 
None

$$$$

     RDKit          

 41 47  0  0  0  0  0  0  0  0999 V2000
    0.0000    0.0000    0.0000 C   0  0  0  0  0  0  0  0  0  0  0  0
    0.0000    0.0000    0.0000 C   0  0  0  0  0  0  0  0  0  0  0  0
    0.0000    0.0000    0.0000 C   0  0  0  0  0  0  0  0  0  0  0  0
    0.0000    0.0000    0.0000 C   0  0  0  0  0  0  0  0  0  0  0  0
    0.0000    0.0000    0.0000 N   0  0  0  0  0  0  0  0  0  0  0  0
    0.0000    0.0000    0.0000 C   0  0  0  0  0  0  0  0  0  0  0  0
    0.0000    0.0000    0.0000 O   0  0  0  0  0  0  0  0  0  0  0  0
    0.0000    0.0000    0.0000 C   0  0  0  0  0  0  0  0  0  0  0  0
    0.0000    0.0000    0.0000 N   0  0  0  0  0  0  0  0  0  0  0  0
    0.0000    0.0000    0.0000 C   0  0  0  0  0  0  0  0  0  0  0  0
    0.0000    0.0000    0.0000 O   0  0  0  0  0  0  0  0  0  0  0  0
    0.0000    0.0000    0.0000 C   0  0  0  0  0  0  0  0  0  0  0  0
    0.0000    0.0000    0.0000 C   0  0  0  0  0  0  0  0  0  0  0  0
    0.0000    0.0000    0.0000 N   0  0  0  0  0  0  0  0  0  0  0  0
    0.0000    0.0000    0.0000 C   0  0  0  0  0  0  0  0  0  0  0  0
    0.0000    0.0000    0.0000 C   0  0  0  0  0  0  0  0  0  0  0  0
    0.0000    0.0000    0.0000 C   0  0  0  0  0  0  0  0  0  0  0  0
    0.0000    0.0000    0.0000 C   0  0  0  0  0  0  0  0  0  0  0  0
    0.0000    0.0000    0.0000 C   0  0  0  0  0  0  0  0  0  0  0  0
    0.0000    0.0000    0.0000 N   0  0  0  0  0  0  0  0  0  0  0  0
    0.0000    0.0000    0.0000 C   0  0  0  0  0  0  0  0  0  0  0  0
    0.0000    0.0000    0.0000 C   0  0  0  0  0  0  0  0  0  0  0  0
    0.0000    0.0000    0.0000 C   0  0  0  0  0  0  0  0  0  0  0  0
    0.0000    0.0000    0.0000 C   0  0  0  0  0  0  0  0  0  0  0  0
    0.0000    0.0000    0.0000 C   0  0  0  0  0  0  0  0  0  0  0  0
    0.0000    0.0000    0.0000 C   0  0  0  0  0  0  0  0  0  0  0  0
    0.0000    0.0000    0.0000 C   0  0  0  0  0  0  0  0  0  0  0  0
    0.0000    0.0000    0.0000 C   0  0  0  0  0  0  0  0  0  0  0  0
    0.0000    0.0000    0.0000 O   0  0  0  0  0  0  0  0  0  0  0  0
    0.0000    0.0000    0.0000 C   0  0  0  0  0  0  0  0  0  0  0  0
    0.0000    0.0000    0.0000 O   0  0  0  0  0  0  0  0  0  0  0  0
    0.0000    0.0000    0.0000 C   0  0  0  0  0  0  0  0  0  0  0  0
    0.0000    0.0000    0.0000 C   0  0  0  0  0  0  0  0  0  0  0  0
    0.0000    0.0000    0.0000 C   0  0  0  0  0  0  0  0  0  0  0  0
    0.0000    0.0000    0.0000 C   0  0  0  0  0  0  0  0  0  0  0  0
    0.0000    0.0000    0.0000 N   0  0  0  0  0  0  0  0  0  0  0  0
    0.0000    0.0000    0.0000 C   0  0  0  0  0  0  0  0  0  0  0  0
    0.0000    0.0000    0.0000 O   0  0  0  0  0  0  0  0  0  0  0  0
    0.0000    0.0000    0.0000 C   0  0  0  0  0  0  0  0  0  0  0  0
    0.0000    0.0000    0.0000 C   0  0  0  0  0  0  0  0  0  0  0  0
    0.0000    0.0000    0.0000 C   0  0  0  0  0  0  0  0  0  0  0  0
  1  2  1  0
  2  3  1  0
  2  4  1  0
  4  5  1  0
  5  6  1  0
  6  7  2  0
  6  8  1  0
  8  9  1  0
  9 10  1  0
 10 11  2  0
 10 12  1  0
 12 13  1  0
 13 14  1  0
 14 15  1  0
 14 16  1  0
 16 17  1  0
 17 18  1  0
 18 19  2  0
 19 20  1  0
 20 21  1  0
 21 22  2  0
 22 23  1  0
 23 24  2  0
 24 25  1  0
 25 26  1  0
 26 27  2  0
 25 28  2  0
  8 29  1  0
 29 30  1  0
 30 31  1  0
 30 32  1  0
 32 33  1  0
 33 34  1  0
 34 35  1  0
 35 36  1  0
 36 37  1  0
 37 38  2  0
  8 39  1  0
 39 40  1  0
 39 41  1  0
 37  4  1  0
 30  5  1  0
 27 12  1  0
 26 16  1  0
 28 18  1  0
 28 21  1  0
 36 32  1  0
M  END
>  <pIC50>  (121) 
8.2

>  <ChEMBL_ID>  (121) 
CHEMBL1385840

>  <document_journal>  (121) 
None

>  <bao_endpoint>  (121) 
BAO_0000190

>  <potential_duplicate>  (121) 
False

>  <uo_units>  (121) 
UO_0000065

>  <canonical_smiles>  (121) 
CC(C)[C@@H]1N2C(=O)[C@](NC(=O)[C@H]3CN(C)[C@@H]4Cc5c[nH]c6cccc(C4=C3)c56)(O[C@@]2(O)[C@@H]7CCCN7C1=O)C(C)C

>  <parent_molecule_chembl_id>  (121) 
CHEMBL1385840

>  <assay_type>  (121) 
B

>  <src_id>  (121) 
15

>  <ligand_efficiency>  (121) 
{u'le': u'0.27', u'bei': u'14.6', u'sei': u'6.94', u'lle': u'4.79'}

>  <standard_flag>  (121) 
True

>  <molecule_chembl_id>  (121) 
CHEMBL1385840

>  <target_organism>  (121) 
Homo sapiens

>  <standard_units>  (121) 
nM

>  <record_id>  (121) 
1539735

>  <document_chembl_id>  (121) 
CHEMBL1909046

>  <bao_format>  (121) 
BAO_0000249

>  <data_validity_description>  (121) 
None

>  <activity_id>  (121) 
7662761

>  <standard_type>  (121) 
IC50

>  <target_chembl_id>  (121) 
CHEMBL1867

>  <data_validity_comment>  (121) 
None

>  <published_value>  (121) 
0.006296

>  <document_year>  (121) 
None

>  <target_pref_name>  (121) 
Alpha-2a adrenergic receptor

>  <assay_chembl_id>  (121) 
CHEMBL1909088

>  <standard_relation>  (121) 
=

>  <assay_description>  (121) 
DRUGMATRIX: Alpha-2A adrenergic receptor radioligand binding (ligand: MK-912)

>  <published_relation>  (121) 
=

>  <standard_value>  (121) 
6.296

>  <qudt_units>  (121) 
http://www.openphacts.org/units/Nanomolar

>  <target_tax_id>  (121) 
9606

>  <bao_label>  (121) 
cell membrane format

>  <published_units>  (121) 
uM

>  <pchembl_value>  (121) 
8.2

>  <published_type>  (121) 
IC50

>  <activity_comment>  (121) 
None

$$$$

     RDKit          

 30 33  0  0  0  0  0  0  0  0999 V2000
    0.0000    0.0000    0.0000 F   0  0  0  0  0  0  0  0  0  0  0  0
    0.0000    0.0000    0.0000 C   0  0  0  0  0  0  0  0  0  0  0  0
    0.0000    0.0000    0.0000 C   0  0  0  0  0  0  0  0  0  0  0  0
    0.0000    0.0000    0.0000 C   0  0  0  0  0  0  0  0  0  0  0  0
    0.0000    0.0000    0.0000 C   0  0  0  0  0  0  0  0  0  0  0  0
    0.0000    0.0000    0.0000 C   0  0  0  0  0  0  0  0  0  0  0  0
    0.0000    0.0000    0.0000 C   0  0  0  0  0  0  0  0  0  0  0  0
    0.0000    0.0000    0.0000 C   0  0  0  0  0  0  0  0  0  0  0  0
    0.0000    0.0000    0.0000 N   0  0  0  0  0  0  0  0  0  0  0  0
    0.0000    0.0000    0.0000 C   0  0  0  0  0  0  0  0  0  0  0  0
    0.0000    0.0000    0.0000 C   0  0  0  0  0  0  0  0  0  0  0  0
    0.0000    0.0000    0.0000 N   0  0  0  0  0  0  0  0  0  0  0  0
    0.0000    0.0000    0.0000 C   0  0  0  0  0  0  0  0  0  0  0  0
    0.0000    0.0000    0.0000 C   0  0  0  0  0  0  0  0  0  0  0  0
    0.0000    0.0000    0.0000 C   0  0  0  0  0  0  0  0  0  0  0  0
    0.0000    0.0000    0.0000 C   0  0  0  0  0  0  0  0  0  0  0  0
    0.0000    0.0000    0.0000 C   0  0  0  0  0  0  0  0  0  0  0  0
    0.0000    0.0000    0.0000 C   0  0  0  0  0  0  0  0  0  0  0  0
    0.0000    0.0000    0.0000 C   0  0  0  0  0  0  0  0  0  0  0  0
    0.0000    0.0000    0.0000 C   0  0  0  0  0  0  0  0  0  0  0  0
    0.0000    0.0000    0.0000 C   0  0  0  0  0  0  0  0  0  0  0  0
    0.0000    0.0000    0.0000 C   0  0  0  0  0  0  0  0  0  0  0  0
    0.0000    0.0000    0.0000 C   0  0  0  0  0  0  0  0  0  0  0  0
    0.0000    0.0000    0.0000 C   0  0  0  0  0  0  0  0  0  0  0  0
    0.0000    0.0000    0.0000 C   0  0  0  0  0  0  0  0  0  0  0  0
    0.0000    0.0000    0.0000 C   0  0  0  0  0  0  0  0  0  0  0  0
    0.0000    0.0000    0.0000 C   0  0  0  0  0  0  0  0  0  0  0  0
    0.0000    0.0000    0.0000 F   0  0  0  0  0  0  0  0  0  0  0  0
    0.0000    0.0000    0.0000 C   0  0  0  0  0  0  0  0  0  0  0  0
    0.0000    0.0000    0.0000 C   0  0  0  0  0  0  0  0  0  0  0  0
  1  2  1  0
  2  3  2  0
  3  4  1  0
  4  5  2  0
  5  6  1  0
  6  7  2  0
  5  8  1  0
  8  9  1  0
  9 10  1  0
 10 11  1  0
 11 12  1  0
 12 13  1  0
 13 14  1  0
 14 15  2  0
 15 16  1  0
 16 17  2  0
 17 18  1  0
 18 19  2  0
 19 20  1  0
 20 21  2  0
 12 22  1  0
 22 23  1  0
  8 24  1  0
 24 25  2  0
 25 26  1  0
 26 27  2  0
 27 28  1  0
 27 29  1  0
 29 30  2  0
  7  2  1  0
 23  9  1  0
 21 16  1  0
 30 24  1  0
M  END
>  <pIC50>  (122) 
6.24

>  <ChEMBL_ID>  (122) 
CHEMBL30008

>  <document_journal>  (122) 
None

>  <bao_endpoint>  (122) 
BAO_0000190

>  <potential_duplicate>  (122) 
False

>  <uo_units>  (122) 
UO_0000065

>  <canonical_smiles>  (122) 
Fc1ccc(cc1)C(N2CCN(C\C=C\c3ccccc3)CC2)c4ccc(F)cc4

>  <parent_molecule_chembl_id>  (122) 
CHEMBL30008

>  <assay_type>  (122) 
B

>  <src_id>  (122) 
15

>  <ligand_efficiency>  (122) 
{u'le': u'0.28', u'bei': u'15.42', u'sei': u'96.23', u'lle': u'0.3'}

>  <standard_flag>  (122) 
True

>  <molecule_chembl_id>  (122) 
CHEMBL30008

>  <target_organism>  (122) 
Homo sapiens

>  <standard_units>  (122) 
nM

>  <record_id>  (122) 
1539775

>  <document_chembl_id>  (122) 
CHEMBL1909046

>  <bao_format>  (122) 
BAO_0000249

>  <data_validity_description>  (122) 
None

>  <activity_id>  (122) 
7663490

>  <standard_type>  (122) 
IC50

>  <target_chembl_id>  (122) 
CHEMBL1867

>  <data_validity_comment>  (122) 
None

>  <published_value>  (122) 
0.581

>  <document_year>  (122) 
None

>  <target_pref_name>  (122) 
Alpha-2a adrenergic receptor

>  <assay_chembl_id>  (122) 
CHEMBL1909088

>  <standard_relation>  (122) 
=

>  <assay_description>  (122) 
DRUGMATRIX: Alpha-2A adrenergic receptor radioligand binding (ligand: MK-912)

>  <published_relation>  (122) 
=

>  <standard_value>  (122) 
581

>  <qudt_units>  (122) 
http://www.openphacts.org/units/Nanomolar

>  <target_tax_id>  (122) 
9606

>  <bao_label>  (122) 
cell membrane format

>  <published_units>  (122) 
uM

>  <pchembl_value>  (122) 
6.24

>  <published_type>  (122) 
IC50

>  <activity_comment>  (122) 
None

$$$$

     RDKit          

 24 27  0  0  0  0  0  0  0  0999 V2000
    0.0000    0.0000    0.0000 C   0  0  0  0  0  0  0  0  0  0  0  0
    0.0000    0.0000    0.0000 C   0  0  0  0  0  0  0  0  0  0  0  0
    0.0000    0.0000    0.0000 C   0  0  0  0  0  0  0  0  0  0  0  0
    0.0000    0.0000    0.0000 O   0  0  0  0  0  0  0  0  0  0  0  0
    0.0000    0.0000    0.0000 N   0  0  0  0  0  0  0  0  0  0  0  0
    0.0000    0.0000    0.0000 C   0  0  0  0  0  0  0  0  0  0  0  0
    0.0000    0.0000    0.0000 O   0  0  0  0  0  0  0  0  0  0  0  0
    0.0000    0.0000    0.0000 C   0  0  0  0  0  0  0  0  0  0  0  0
    0.0000    0.0000    0.0000 C   0  0  0  0  0  0  0  0  0  0  0  0
    0.0000    0.0000    0.0000 N   0  0  0  0  0  0  0  0  0  0  0  0
    0.0000    0.0000    0.0000 C   0  0  0  0  0  0  0  0  0  0  0  0
    0.0000    0.0000    0.0000 C   0  0  0  0  0  0  0  0  0  0  0  0
    0.0000    0.0000    0.0000 C   0  0  0  0  0  0  0  0  0  0  0  0
    0.0000    0.0000    0.0000 C   0  0  0  0  0  0  0  0  0  0  0  0
    0.0000    0.0000    0.0000 C   0  0  0  0  0  0  0  0  0  0  0  0
    0.0000    0.0000    0.0000 N   0  0  0  0  0  0  0  0  0  0  0  0
    0.0000    0.0000    0.0000 C   0  0  0  0  0  0  0  0  0  0  0  0
    0.0000    0.0000    0.0000 C   0  0  0  0  0  0  0  0  0  0  0  0
    0.0000    0.0000    0.0000 C   0  0  0  0  0  0  0  0  0  0  0  0
    0.0000    0.0000    0.0000 C   0  0  0  0  0  0  0  0  0  0  0  0
    0.0000    0.0000    0.0000 C   0  0  0  0  0  0  0  0  0  0  0  0
    0.0000    0.0000    0.0000 C   0  0  0  0  0  0  0  0  0  0  0  0
    0.0000    0.0000    0.0000 C   0  0  0  0  0  0  0  0  0  0  0  0
    0.0000    0.0000    0.0000 C   0  0  0  0  0  0  0  0  0  0  0  0
  1  2  1  0
  2  3  1  0
  3  4  1  0
  2  5  1  0
  5  6  1  0
  6  7  2  0
  6  8  1  0
  8  9  1  0
  9 10  1  0
 10 11  1  0
 10 12  1  0
 12 13  1  0
 13 14  1  0
 14 15  2  0
 15 16  1  0
 16 17  1  0
 17 18  2  0
 18 19  1  0
 19 20  2  0
 20 21  1  0
 21 22  1  0
 22 23  2  0
 21 24  2  0
 23  8  1  0
 22 12  1  0
 24 14  1  0
 24 17  1  0
M  END
>  <pIC50>  (123) 
5.78

>  <ChEMBL_ID>  (123) 
CHEMBL119443

>  <document_journal>  (123) 
None

>  <bao_endpoint>  (123) 
BAO_0000190

>  <potential_duplicate>  (123) 
False

>  <uo_units>  (123) 
UO_0000065

>  <canonical_smiles>  (123) 
C[C@@H](CO)NC(=O)[C@H]1CN(C)[C@@H]2Cc3c[nH]c4cccc(C2=C1)c34

>  <parent_molecule_chembl_id>  (123) 
CHEMBL119443

>  <assay_type>  (123) 
B

>  <src_id>  (123) 
15

>  <ligand_efficiency>  (123) 
{u'le': u'0.33', u'bei': u'17.75', u'sei': u'8.45', u'lle': u'4.23'}

>  <standard_flag>  (123) 
True

>  <molecule_chembl_id>  (123) 
CHEMBL119443

>  <target_organism>  (123) 
Homo sapiens

>  <standard_units>  (123) 
nM

>  <record_id>  (123) 
1539736

>  <document_chembl_id>  (123) 
CHEMBL1909046

>  <bao_format>  (123) 
BAO_0000249

>  <data_validity_description>  (123) 
None

>  <activity_id>  (123) 
7667035

>  <standard_type>  (123) 
IC50

>  <target_chembl_id>  (123) 
CHEMBL1867

>  <data_validity_comment>  (123) 
None

>  <published_value>  (123) 
1.68

>  <document_year>  (123) 
None

>  <target_pref_name>  (123) 
Alpha-2a adrenergic receptor

>  <assay_chembl_id>  (123) 
CHEMBL1909088

>  <standard_relation>  (123) 
=

>  <assay_description>  (123) 
DRUGMATRIX: Alpha-2A adrenergic receptor radioligand binding (ligand: MK-912)

>  <published_relation>  (123) 
=

>  <standard_value>  (123) 
1680

>  <qudt_units>  (123) 
http://www.openphacts.org/units/Nanomolar

>  <target_tax_id>  (123) 
9606

>  <bao_label>  (123) 
cell membrane format

>  <published_units>  (123) 
uM

>  <pchembl_value>  (123) 
5.78

>  <published_type>  (123) 
IC50

>  <activity_comment>  (123) 
None

$$$$

     RDKit          

 30 33  0  0  0  0  0  0  0  0999 V2000
    0.0000    0.0000    0.0000 O   0  0  0  0  0  0  0  0  0  0  0  0
    0.0000    0.0000    0.0000 C   0  0  0  0  0  0  0  0  0  0  0  0
    0.0000    0.0000    0.0000 C   0  0  0  0  0  0  0  0  0  0  0  0
    0.0000    0.0000    0.0000 N   0  0  0  0  0  0  0  0  0  0  0  0
    0.0000    0.0000    0.0000 C   0  0  0  0  0  0  0  0  0  0  0  0
    0.0000    0.0000    0.0000 C   0  0  0  0  0  0  0  0  0  0  0  0
    0.0000    0.0000    0.0000 N   0  0  0  0  0  0  0  0  0  0  0  0
    0.0000    0.0000    0.0000 C   0  0  0  0  0  0  0  0  0  0  0  0
    0.0000    0.0000    0.0000 C   0  0  0  0  0  0  0  0  0  0  0  0
    0.0000    0.0000    0.0000 C   0  0  0  0  0  0  0  0  0  0  0  0
    0.0000    0.0000    0.0000 N   0  0  0  0  0  0  0  0  0  0  0  0
    0.0000    0.0000    0.0000 C   0  0  0  0  0  0  0  0  0  0  0  0
    0.0000    0.0000    0.0000 C   0  0  0  0  0  0  0  0  0  0  0  0
    0.0000    0.0000    0.0000 C   0  0  0  0  0  0  0  0  0  0  0  0
    0.0000    0.0000    0.0000 C   0  0  0  0  0  0  0  0  0  0  0  0
    0.0000    0.0000    0.0000 C   0  0  0  0  0  0  0  0  0  0  0  0
    0.0000    0.0000    0.0000 C   0  0  0  0  0  0  0  0  0  0  0  0
    0.0000    0.0000    0.0000 S   0  0  0  0  0  0  0  0  0  0  0  0
    0.0000    0.0000    0.0000 C   0  0  0  0  0  0  0  0  0  0  0  0
    0.0000    0.0000    0.0000 C   0  0  0  0  0  0  0  0  0  0  0  0
    0.0000    0.0000    0.0000 C   0  0  0  0  0  0  0  0  0  0  0  0
    0.0000    0.0000    0.0000 C   0  0  0  0  0  0  0  0  0  0  0  0
    0.0000    0.0000    0.0000 C   0  0  0  0  0  0  0  0  0  0  0  0
    0.0000    0.0000    0.0000 C   0  0  0  0  0  0  0  0  0  0  0  0
    0.0000    0.0000    0.0000 C   0  0  0  0  0  0  0  0  0  0  0  0
    0.0000    0.0000    0.0000 F   0  0  0  0  0  0  0  0  0  0  0  0
    0.0000    0.0000    0.0000 F   0  0  0  0  0  0  0  0  0  0  0  0
    0.0000    0.0000    0.0000 F   0  0  0  0  0  0  0  0  0  0  0  0
    0.0000    0.0000    0.0000 C   0  0  0  0  0  0  0  0  0  0  0  0
    0.0000    0.0000    0.0000 C   0  0  0  0  0  0  0  0  0  0  0  0
  1  2  1  0
  2  3  1  0
  3  4  1  0
  4  5  1  0
  5  6  1  0
  6  7  1  0
  7  8  1  0
  8  9  1  0
  9 10  1  0
 10 11  1  0
 11 12  1  0
 12 13  2  0
 13 14  1  0
 14 15  2  0
 15 16  1  0
 16 17  2  0
 17 18  1  0
 18 19  1  0
 19 20  2  0
 20 21  1  0
 21 22  2  0
 22 23  1  0
 23 24  2  0
 22 25  1  0
 25 26  1  0
 25 27  1  0
 25 28  1  0
  7 29  1  0
 29 30  1  0
 30  4  1  0
 24 11  1  0
 17 12  1  0
 24 19  1  0
M  END
>  <pIC50>  (124) 
6.67

>  <ChEMBL_ID>  (124) 
CHEMBL726

>  <document_journal>  (124) 
None

>  <bao_endpoint>  (124) 
BAO_0000190

>  <potential_duplicate>  (124) 
False

>  <uo_units>  (124) 
UO_0000065

>  <canonical_smiles>  (124) 
OCCN1CCN(CCCN2c3ccccc3Sc4ccc(cc24)C(F)(F)F)CC1

>  <parent_molecule_chembl_id>  (124) 
CHEMBL726

>  <assay_type>  (124) 
B

>  <src_id>  (124) 
15

>  <ligand_efficiency>  (124) 
{u'le': u'0.3', u'bei': u'15.24', u'sei': u'12.07', u'lle': u'2.23'}

>  <standard_flag>  (124) 
True

>  <molecule_chembl_id>  (124) 
CHEMBL726

>  <target_organism>  (124) 
Homo sapiens

>  <standard_units>  (124) 
nM

>  <record_id>  (124) 
1539784

>  <document_chembl_id>  (124) 
CHEMBL1909046

>  <bao_format>  (124) 
BAO_0000249

>  <data_validity_description>  (124) 
None

>  <activity_id>  (124) 
7667868

>  <standard_type>  (124) 
IC50

>  <target_chembl_id>  (124) 
CHEMBL1867

>  <data_validity_comment>  (124) 
None

>  <published_value>  (124) 
0.215

>  <document_year>  (124) 
None

>  <target_pref_name>  (124) 
Alpha-2a adrenergic receptor

>  <assay_chembl_id>  (124) 
CHEMBL1909088

>  <standard_relation>  (124) 
=

>  <assay_description>  (124) 
DRUGMATRIX: Alpha-2A adrenergic receptor radioligand binding (ligand: MK-912)

>  <published_relation>  (124) 
=

>  <standard_value>  (124) 
215

>  <qudt_units>  (124) 
http://www.openphacts.org/units/Nanomolar

>  <target_tax_id>  (124) 
9606

>  <bao_label>  (124) 
cell membrane format

>  <published_units>  (124) 
uM

>  <pchembl_value>  (124) 
6.67

>  <published_type>  (124) 
IC50

>  <activity_comment>  (124) 
None

$$$$

     RDKit          

 43 50  0  0  0  0  0  0  0  0999 V2000
    0.0000    0.0000    0.0000 C   0  0  0  0  0  0  0  0  0  0  0  0
    0.0000    0.0000    0.0000 N   0  0  0  0  0  0  0  0  0  0  0  0
    0.0000    0.0000    0.0000 C   0  0  0  0  0  0  0  0  0  0  0  0
    0.0000    0.0000    0.0000 C   0  0  0  0  0  0  0  0  0  0  0  0
    0.0000    0.0000    0.0000 C   0  0  0  0  0  0  0  0  0  0  0  0
    0.0000    0.0000    0.0000 C   0  0  0  0  0  0  0  0  0  0  0  0
    0.0000    0.0000    0.0000 C   0  0  0  0  0  0  0  0  0  0  0  0
    0.0000    0.0000    0.0000 C   0  0  0  0  0  0  0  0  0  0  0  0
    0.0000    0.0000    0.0000 C   0  0  0  0  0  0  0  0  0  0  0  0
    0.0000    0.0000    0.0000 C   0  0  0  0  0  0  0  0  0  0  0  0
    0.0000    0.0000    0.0000 N   0  0  0  0  0  0  0  0  0  0  0  0
    0.0000    0.0000    0.0000 C   0  0  0  0  0  0  0  0  0  0  0  0
    0.0000    0.0000    0.0000 C   0  0  0  0  0  0  0  0  0  0  0  0
    0.0000    0.0000    0.0000 C   0  0  0  0  0  0  0  0  0  0  0  0
    0.0000    0.0000    0.0000 C   0  0  0  0  0  0  0  0  0  0  0  0
    0.0000    0.0000    0.0000 C   0  0  0  0  0  0  0  0  0  0  0  0
    0.0000    0.0000    0.0000 C   0  0  0  0  0  0  0  0  0  0  0  0
    0.0000    0.0000    0.0000 C   0  0  0  0  0  0  0  0  0  0  0  0
    0.0000    0.0000    0.0000 O   0  0  0  0  0  0  0  0  0  0  0  0
    0.0000    0.0000    0.0000 N   0  0  0  0  0  0  0  0  0  0  0  0
    0.0000    0.0000    0.0000 C   0  0  0  0  0  0  0  0  0  0  0  0
    0.0000    0.0000    0.0000 C   0  0  0  0  0  0  0  0  0  0  0  0
    0.0000    0.0000    0.0000 O   0  0  0  0  0  0  0  0  0  0  0  0
    0.0000    0.0000    0.0000 C   0  0  0  0  0  0  0  0  0  0  0  0
    0.0000    0.0000    0.0000 O   0  0  0  0  0  0  0  0  0  0  0  0
    0.0000    0.0000    0.0000 C   0  0  0  0  0  0  0  0  0  0  0  0
    0.0000    0.0000    0.0000 C   0  0  0  0  0  0  0  0  0  0  0  0
    0.0000    0.0000    0.0000 C   0  0  0  0  0  0  0  0  0  0  0  0
    0.0000    0.0000    0.0000 C   0  0  0  0  0  0  0  0  0  0  0  0
    0.0000    0.0000    0.0000 N   0  0  0  0  0  0  0  0  0  0  0  0
    0.0000    0.0000    0.0000 C   0  0  0  0  0  0  0  0  0  0  0  0
    0.0000    0.0000    0.0000 O   0  0  0  0  0  0  0  0  0  0  0  0
    0.0000    0.0000    0.0000 C   0  0  0  0  0  0  0  0  0  0  0  0
    0.0000    0.0000    0.0000 C   0  0  0  0  0  0  0  0  0  0  0  0
    0.0000    0.0000    0.0000 C   0  0  0  0  0  0  0  0  0  0  0  0
    0.0000    0.0000    0.0000 C   0  0  0  0  0  0  0  0  0  0  0  0
    0.0000    0.0000    0.0000 C   0  0  0  0  0  0  0  0  0  0  0  0
    0.0000    0.0000    0.0000 C   0  0  0  0  0  0  0  0  0  0  0  0
    0.0000    0.0000    0.0000 C   0  0  0  0  0  0  0  0  0  0  0  0
    0.0000    0.0000    0.0000 C   0  0  0  0  0  0  0  0  0  0  0  0
    0.0000    0.0000    0.0000 N   0  0  0  0  0  0  0  0  0  0  0  0
    0.0000    0.0000    0.0000 C   0  0  0  0  0  0  0  0  0  0  0  0
    0.0000    0.0000    0.0000 O   0  0  0  0  0  0  0  0  0  0  0  0
  1  2  1  0
  2  3  1  0
  3  4  1  0
  4  5  1  0
  5  6  2  0
  6  7  1  0
  7  8  1  0
  8  9  1  0
  9 10  2  0
 10 11  1  0
 11 12  1  0
 12 13  2  0
 13 14  1  0
 14 15  2  0
 15 16  1  0
 16 17  2  0
  4 18  1  0
 18 19  2  0
 18 20  1  0
 20 21  1  0
 21 22  1  0
 21 23  1  0
 23 24  1  0
 24 25  1  0
 24 26  1  0
 26 27  1  0
 27 28  1  0
 28 29  1  0
 29 30  1  0
 30 31  1  0
 31 32  2  0
 31 33  1  0
 33 34  1  0
 34 35  1  0
 35 36  2  0
 36 37  1  0
 37 38  2  0
 38 39  1  0
 39 40  2  0
 33 41  1  0
 41 42  1  0
 42 43  2  0
  7  2  1  0
 16  6  1  0
 17  9  1  0
 17 12  1  0
 42 21  1  0
 41 24  1  0
 30 26  1  0
 40 35  1  0
M  END
>  <pIC50>  (125) 
8.67

>  <ChEMBL_ID>  (125) 
CHEMBL442

>  <document_journal>  (125) 
None

>  <bao_endpoint>  (125) 
BAO_0000190

>  <potential_duplicate>  (125) 
False

>  <uo_units>  (125) 
UO_0000065

>  <canonical_smiles>  (125) 
CN1C[C@@H](C=C2[C@H]1Cc3c[nH]c4cccc2c34)C(=O)N[C@]5(C)O[C@@]6(O)[C@@H]7CCCN7C(=O)[C@H](Cc8ccccc8)N6C5=O

>  <parent_molecule_chembl_id>  (125) 
CHEMBL442

>  <assay_type>  (125) 
B

>  <src_id>  (125) 
15

>  <ligand_efficiency>  (125) 
{u'le': u'0.28', u'bei': u'14.91', u'sei': u'7.34', u'lle': u'5.65'}

>  <standard_flag>  (125) 
True

>  <molecule_chembl_id>  (125) 
CHEMBL442

>  <target_organism>  (125) 
Homo sapiens

>  <standard_units>  (125) 
nM

>  <record_id>  (125) 
1539737

>  <document_chembl_id>  (125) 
CHEMBL1909046

>  <bao_format>  (125) 
BAO_0000249

>  <data_validity_description>  (125) 
None

>  <activity_id>  (125) 
7671329

>  <standard_type>  (125) 
IC50

>  <target_chembl_id>  (125) 
CHEMBL1867

>  <data_validity_comment>  (125) 
None

>  <published_value>  (125) 
0.002123

>  <document_year>  (125) 
None

>  <target_pref_name>  (125) 
Alpha-2a adrenergic receptor

>  <assay_chembl_id>  (125) 
CHEMBL1909088

>  <standard_relation>  (125) 
=

>  <assay_description>  (125) 
DRUGMATRIX: Alpha-2A adrenergic receptor radioligand binding (ligand: MK-912)

>  <published_relation>  (125) 
=

>  <standard_value>  (125) 
2.123

>  <qudt_units>  (125) 
http://www.openphacts.org/units/Nanomolar

>  <target_tax_id>  (125) 
9606

>  <bao_label>  (125) 
cell membrane format

>  <published_units>  (125) 
uM

>  <pchembl_value>  (125) 
8.67

>  <published_type>  (125) 
IC50

>  <activity_comment>  (125) 
None

$$$$

     RDKit          

 28 31  0  0  0  0  0  0  0  0999 V2000
    0.0000    0.0000    0.0000 F   0  0  0  0  0  0  0  0  0  0  0  0
    0.0000    0.0000    0.0000 C   0  0  0  0  0  0  0  0  0  0  0  0
    0.0000    0.0000    0.0000 C   0  0  0  0  0  0  0  0  0  0  0  0
    0.0000    0.0000    0.0000 C   0  0  0  0  0  0  0  0  0  0  0  0
    0.0000    0.0000    0.0000 C   0  0  0  0  0  0  0  0  0  0  0  0
    0.0000    0.0000    0.0000 C   0  0  0  0  0  0  0  0  0  0  0  0
    0.0000    0.0000    0.0000 C   0  0  0  0  0  0  0  0  0  0  0  0
    0.0000    0.0000    0.0000 C   0  0  0  0  0  0  0  0  0  0  0  0
    0.0000    0.0000    0.0000 O   0  0  0  0  0  0  0  0  0  0  0  0
    0.0000    0.0000    0.0000 C   0  0  0  0  0  0  0  0  0  0  0  0
    0.0000    0.0000    0.0000 C   0  0  0  0  0  0  0  0  0  0  0  0
    0.0000    0.0000    0.0000 C   0  0  0  0  0  0  0  0  0  0  0  0
    0.0000    0.0000    0.0000 N   0  0  0  0  0  0  0  0  0  0  0  0
    0.0000    0.0000    0.0000 C   0  0  0  0  0  0  0  0  0  0  0  0
    0.0000    0.0000    0.0000 C   0  0  0  0  0  0  0  0  0  0  0  0
    0.0000    0.0000    0.0000 C   0  0  0  0  0  0  0  0  0  0  0  0
    0.0000    0.0000    0.0000 C   0  0  0  0  0  0  0  0  0  0  0  0
    0.0000    0.0000    0.0000 C   0  0  0  0  0  0  0  0  0  0  0  0
    0.0000    0.0000    0.0000 N   0  0  0  0  0  0  0  0  0  0  0  0
    0.0000    0.0000    0.0000 C   0  0  0  0  0  0  0  0  0  0  0  0
    0.0000    0.0000    0.0000 O   0  0  0  0  0  0  0  0  0  0  0  0
    0.0000    0.0000    0.0000 N   0  0  0  0  0  0  0  0  0  0  0  0
    0.0000    0.0000    0.0000 C   0  0  0  0  0  0  0  0  0  0  0  0
    0.0000    0.0000    0.0000 C   0  0  0  0  0  0  0  0  0  0  0  0
    0.0000    0.0000    0.0000 C   0  0  0  0  0  0  0  0  0  0  0  0
    0.0000    0.0000    0.0000 C   0  0  0  0  0  0  0  0  0  0  0  0
    0.0000    0.0000    0.0000 C   0  0  0  0  0  0  0  0  0  0  0  0
    0.0000    0.0000    0.0000 C   0  0  0  0  0  0  0  0  0  0  0  0
  1  2  1  0
  2  3  2  0
  3  4  1  0
  4  5  2  0
  5  6  1  0
  6  7  2  0
  5  8  1  0
  8  9  2  0
  8 10  1  0
 10 11  1  0
 11 12  1  0
 12 13  1  0
 13 14  1  0
 14 15  1  0
 15 16  1  0
 16 17  2  0
 17 18  1  0
 16 19  1  0
 19 20  1  0
 20 21  2  0
 20 22  1  0
 22 23  1  0
 23 24  2  0
 24 25  1  0
 25 26  2  0
 26 27  1  0
 27 28  2  0
  7  2  1  0
 18 13  1  0
 28 19  1  0
 28 23  1  0
M  END
>  <pIC50>  (126) 
5.53

>  <ChEMBL_ID>  (126) 
CHEMBL1108

>  <document_journal>  (126) 
None

>  <bao_endpoint>  (126) 
BAO_0000190

>  <potential_duplicate>  (126) 
False

>  <uo_units>  (126) 
UO_0000065

>  <canonical_smiles>  (126) 
Fc1ccc(cc1)C(=O)CCCN2CCC(=CC2)N3C(=O)Nc4ccccc34

>  <parent_molecule_chembl_id>  (126) 
CHEMBL1108

>  <assay_type>  (126) 
B

>  <src_id>  (126) 
15

>  <ligand_efficiency>  (126) 
{u'le': u'0.27', u'bei': u'14.57', u'sei': u'10.5', u'lle': u'2.48'}

>  <standard_flag>  (126) 
True

>  <molecule_chembl_id>  (126) 
CHEMBL1108

>  <target_organism>  (126) 
Homo sapiens

>  <standard_units>  (126) 
nM

>  <record_id>  (126) 
1539721

>  <document_chembl_id>  (126) 
CHEMBL1909046

>  <bao_format>  (126) 
BAO_0000249

>  <data_validity_description>  (126) 
None

>  <activity_id>  (126) 
7673229

>  <standard_type>  (126) 
IC50

>  <target_chembl_id>  (126) 
CHEMBL1867

>  <data_validity_comment>  (126) 
None

>  <published_value>  (126) 
2.965

>  <document_year>  (126) 
None

>  <target_pref_name>  (126) 
Alpha-2a adrenergic receptor

>  <assay_chembl_id>  (126) 
CHEMBL1909088

>  <standard_relation>  (126) 
=

>  <assay_description>  (126) 
DRUGMATRIX: Alpha-2A adrenergic receptor radioligand binding (ligand: MK-912)

>  <published_relation>  (126) 
=

>  <standard_value>  (126) 
2965

>  <qudt_units>  (126) 
http://www.openphacts.org/units/Nanomolar

>  <target_tax_id>  (126) 
9606

>  <bao_label>  (126) 
cell membrane format

>  <published_units>  (126) 
uM

>  <pchembl_value>  (126) 
5.53

>  <published_type>  (126) 
IC50

>  <activity_comment>  (126) 
None

$$$$

     RDKit          

 26 28  0  0  0  0  0  0  0  0999 V2000
    0.0000    0.0000    0.0000 O   0  0  0  0  0  0  0  0  0  0  0  0
    0.0000    0.0000    0.0000 C   0  0  0  0  0  0  0  0  0  0  0  0
    0.0000    0.0000    0.0000 C   0  0  0  0  0  0  0  0  0  0  0  0
    0.0000    0.0000    0.0000 C   0  0  0  0  0  0  0  0  0  0  0  0
    0.0000    0.0000    0.0000 N   0  0  0  0  0  0  0  0  0  0  0  0
    0.0000    0.0000    0.0000 C   0  0  0  0  0  0  0  0  0  0  0  0
    0.0000    0.0000    0.0000 C   0  0  0  0  0  0  0  0  0  0  0  0
    0.0000    0.0000    0.0000 C   0  0  0  0  0  0  0  0  0  0  0  0
    0.0000    0.0000    0.0000 C   0  0  0  0  0  0  0  0  0  0  0  0
    0.0000    0.0000    0.0000 O   0  0  0  0  0  0  0  0  0  0  0  0
    0.0000    0.0000    0.0000 C   0  0  0  0  0  0  0  0  0  0  0  0
    0.0000    0.0000    0.0000 C   0  0  0  0  0  0  0  0  0  0  0  0
    0.0000    0.0000    0.0000 C   0  0  0  0  0  0  0  0  0  0  0  0
    0.0000    0.0000    0.0000 C   0  0  0  0  0  0  0  0  0  0  0  0
    0.0000    0.0000    0.0000 F   0  0  0  0  0  0  0  0  0  0  0  0
    0.0000    0.0000    0.0000 C   0  0  0  0  0  0  0  0  0  0  0  0
    0.0000    0.0000    0.0000 C   0  0  0  0  0  0  0  0  0  0  0  0
    0.0000    0.0000    0.0000 C   0  0  0  0  0  0  0  0  0  0  0  0
    0.0000    0.0000    0.0000 C   0  0  0  0  0  0  0  0  0  0  0  0
    0.0000    0.0000    0.0000 C   0  0  0  0  0  0  0  0  0  0  0  0
    0.0000    0.0000    0.0000 C   0  0  0  0  0  0  0  0  0  0  0  0
    0.0000    0.0000    0.0000 C   0  0  0  0  0  0  0  0  0  0  0  0
    0.0000    0.0000    0.0000 C   0  0  0  0  0  0  0  0  0  0  0  0
    0.0000    0.0000    0.0000 Cl  0  0  0  0  0  0  0  0  0  0  0  0
    0.0000    0.0000    0.0000 C   0  0  0  0  0  0  0  0  0  0  0  0
    0.0000    0.0000    0.0000 C   0  0  0  0  0  0  0  0  0  0  0  0
  1  2  1  0
  2  3  1  0
  3  4  1  0
  4  5  1  0
  5  6  1  0
  6  7  1  0
  7  8  1  0
  8  9  1  0
  9 10  2  0
  9 11  1  0
 11 12  2  0
 12 13  1  0
 13 14  2  0
 14 15  1  0
 14 16  1  0
 16 17  2  0
  5 18  1  0
 18 19  1  0
  2 20  1  0
 20 21  2  0
 21 22  1  0
 22 23  2  0
 23 24  1  0
 23 25  1  0
 25 26  2  0
 19  2  1  0
 17 11  1  0
 26 20  1  0
M  END
>  <pIC50>  (127) 
5.3

>  <ChEMBL_ID>  (127) 
CHEMBL54

>  <document_journal>  (127) 
None

>  <bao_endpoint>  (127) 
BAO_0000190

>  <potential_duplicate>  (127) 
False

>  <uo_units>  (127) 
UO_0000065

>  <canonical_smiles>  (127) 
OC1(CCN(CCCC(=O)c2ccc(F)cc2)CC1)c3ccc(Cl)cc3

>  <parent_molecule_chembl_id>  (127) 
CHEMBL54

>  <assay_type>  (127) 
B

>  <src_id>  (127) 
15

>  <ligand_efficiency>  (127) 
{u'le': u'0.28', u'bei': u'14.11', u'sei': u'13.08', u'lle': u'1.41'}

>  <standard_flag>  (127) 
True

>  <molecule_chembl_id>  (127) 
CHEMBL54

>  <target_organism>  (127) 
Homo sapiens

>  <standard_units>  (127) 
nM

>  <record_id>  (127) 
1539826

>  <document_chembl_id>  (127) 
CHEMBL1909046

>  <bao_format>  (127) 
BAO_0000249

>  <data_validity_description>  (127) 
None

>  <activity_id>  (127) 
7674998

>  <standard_type>  (127) 
IC50

>  <target_chembl_id>  (127) 
CHEMBL1867

>  <data_validity_comment>  (127) 
None

>  <published_value>  (127) 
4.973

>  <document_year>  (127) 
None

>  <target_pref_name>  (127) 
Alpha-2a adrenergic receptor

>  <assay_chembl_id>  (127) 
CHEMBL1909088

>  <standard_relation>  (127) 
=

>  <assay_description>  (127) 
DRUGMATRIX: Alpha-2A adrenergic receptor radioligand binding (ligand: MK-912)

>  <published_relation>  (127) 
=

>  <standard_value>  (127) 
4973

>  <qudt_units>  (127) 
http://www.openphacts.org/units/Nanomolar

>  <target_tax_id>  (127) 
9606

>  <bao_label>  (127) 
cell membrane format

>  <published_units>  (127) 
uM

>  <pchembl_value>  (127) 
5.3

>  <published_type>  (127) 
IC50

>  <activity_comment>  (127) 
None

$$$$

     RDKit          

 14 15  0  0  0  0  0  0  0  0999 V2000
    0.0000    0.0000    0.0000 Cl  0  0  0  0  0  0  0  0  0  0  0  0
    0.0000    0.0000    0.0000 C   0  0  0  0  0  0  0  0  0  0  0  0
    0.0000    0.0000    0.0000 C   0  0  0  0  0  0  0  0  0  0  0  0
    0.0000    0.0000    0.0000 C   0  0  0  0  0  0  0  0  0  0  0  0
    0.0000    0.0000    0.0000 C   0  0  0  0  0  0  0  0  0  0  0  0
    0.0000    0.0000    0.0000 C   0  0  0  0  0  0  0  0  0  0  0  0
    0.0000    0.0000    0.0000 Cl  0  0  0  0  0  0  0  0  0  0  0  0
    0.0000    0.0000    0.0000 C   0  0  0  0  0  0  0  0  0  0  0  0
    0.0000    0.0000    0.0000 N   0  0  0  0  0  0  0  0  0  0  0  0
    0.0000    0.0000    0.0000 C   0  0  0  0  0  0  0  0  0  0  0  0
    0.0000    0.0000    0.0000 N   0  0  0  0  0  0  0  0  0  0  0  0
    0.0000    0.0000    0.0000 C   0  0  0  0  0  0  0  0  0  0  0  0
    0.0000    0.0000    0.0000 C   0  0  0  0  0  0  0  0  0  0  0  0
    0.0000    0.0000    0.0000 N   0  0  0  0  0  0  0  0  0  0  0  0
  1  2  1  0
  2  3  2  0
  3  4  1  0
  4  5  2  0
  5  6  1  0
  6  7  1  0
  6  8  2  0
  8  9  1  0
  9 10  1  0
 10 11  2  0
 11 12  1  0
 12 13  1  0
 13 14  1  0
  8  2  1  0
 14 10  1  0
M  END
>  <pIC50>  (128) 
6.55

>  <ChEMBL_ID>  (128) 
CHEMBL134

>  <document_journal>  (128) 
None

>  <bao_endpoint>  (128) 
BAO_0000190

>  <potential_duplicate>  (128) 
False

>  <uo_units>  (128) 
UO_0000065

>  <canonical_smiles>  (128) 
Clc1cccc(Cl)c1NC2=NCCN2

>  <parent_molecule_chembl_id>  (128) 
CHEMBL134

>  <assay_type>  (128) 
B

>  <src_id>  (128) 
15

>  <ligand_efficiency>  (128) 
{u'le': u'0.64', u'bei': u'28.48', u'sei': u'17.99', u'lle': u'4.2'}

>  <standard_flag>  (128) 
True

>  <molecule_chembl_id>  (128) 
CHEMBL134

>  <target_organism>  (128) 
Homo sapiens

>  <standard_units>  (128) 
nM

>  <record_id>  (128) 
1539641

>  <document_chembl_id>  (128) 
CHEMBL1909046

>  <bao_format>  (128) 
BAO_0000249

>  <data_validity_description>  (128) 
None

>  <activity_id>  (128) 
7680337

>  <standard_type>  (128) 
IC50

>  <target_chembl_id>  (128) 
CHEMBL1867

>  <data_validity_comment>  (128) 
None

>  <published_value>  (128) 
0.28

>  <document_year>  (128) 
None

>  <target_pref_name>  (128) 
Alpha-2a adrenergic receptor

>  <assay_chembl_id>  (128) 
CHEMBL1909088

>  <standard_relation>  (128) 
=

>  <assay_description>  (128) 
DRUGMATRIX: Alpha-2A adrenergic receptor radioligand binding (ligand: MK-912)

>  <published_relation>  (128) 
=

>  <standard_value>  (128) 
280

>  <qudt_units>  (128) 
http://www.openphacts.org/units/Nanomolar

>  <target_tax_id>  (128) 
9606

>  <bao_label>  (128) 
cell membrane format

>  <published_units>  (128) 
uM

>  <pchembl_value>  (128) 
6.55

>  <published_type>  (128) 
IC50

>  <activity_comment>  (128) 
None

$$$$

     RDKit          

 23 25  0  0  0  0  0  0  0  0999 V2000
    0.0000    0.0000    0.0000 C   0  0  0  0  0  0  0  0  0  0  0  0
    0.0000    0.0000    0.0000 C   0  0  0  0  0  0  0  0  0  0  0  0
    0.0000    0.0000    0.0000 C   0  0  0  0  0  0  0  0  0  0  0  0
    0.0000    0.0000    0.0000 O   0  0  0  0  0  0  0  0  0  0  0  0
    0.0000    0.0000    0.0000 C   0  0  0  0  0  0  0  0  0  0  0  0
    0.0000    0.0000    0.0000 C   0  0  0  0  0  0  0  0  0  0  0  0
    0.0000    0.0000    0.0000 C   0  0  0  0  0  0  0  0  0  0  0  0
    0.0000    0.0000    0.0000 C   0  0  0  0  0  0  0  0  0  0  0  0
    0.0000    0.0000    0.0000 C   0  0  0  0  0  0  0  0  0  0  0  0
    0.0000    0.0000    0.0000 C   0  0  0  0  0  0  0  0  0  0  0  0
    0.0000    0.0000    0.0000 S   0  0  0  0  0  0  0  0  0  0  0  0
    0.0000    0.0000    0.0000 C   0  0  0  0  0  0  0  0  0  0  0  0
    0.0000    0.0000    0.0000 O   0  0  0  0  0  0  0  0  0  0  0  0
    0.0000    0.0000    0.0000 N   0  0  0  0  0  0  0  0  0  0  0  0
    0.0000    0.0000    0.0000 C   0  0  0  0  0  0  0  0  0  0  0  0
    0.0000    0.0000    0.0000 O   0  0  0  0  0  0  0  0  0  0  0  0
    0.0000    0.0000    0.0000 C   0  0  0  0  0  0  0  0  0  0  0  0
    0.0000    0.0000    0.0000 C   0  0  0  0  0  0  0  0  0  0  0  0
    0.0000    0.0000    0.0000 C   0  0  0  0  0  0  0  0  0  0  0  0
    0.0000    0.0000    0.0000 C   0  0  0  0  0  0  0  0  0  0  0  0
    0.0000    0.0000    0.0000 C   0  0  0  0  0  0  0  0  0  0  0  0
    0.0000    0.0000    0.0000 C   0  0  0  0  0  0  0  0  0  0  0  0
    0.0000    0.0000    0.0000 C   0  0  0  0  0  0  0  0  0  0  0  0
  1  2  1  0
  2  3  1  0
  3  4  1  0
  4  5  1  0
  5  6  2  0
  6  7  1  0
  7  8  2  0
  8  9  1  0
  9 10  1  0
 10 11  1  0
 11 12  1  0
 12 13  2  0
 12 14  1  0
 14 15  1  0
 15 16  2  0
  8 17  1  0
 17 18  2  0
  2 19  1  0
 19 20  1  0
 20 21  1  0
 21 22  1  0
 22 23  1  0
 23  2  1  0
 18  5  1  0
 15 10  1  0
M  END
>  <pIC50>  (129) 
4.78

>  <ChEMBL_ID>  (129) 
CHEMBL7002

>  <document_journal>  (129) 
None

>  <bao_endpoint>  (129) 
BAO_0000190

>  <potential_duplicate>  (129) 
False

>  <uo_units>  (129) 
UO_0000065

>  <canonical_smiles>  (129) 
CC1(COc2ccc(CC3SC(=O)NC3=O)cc2)CCCCC1

>  <parent_molecule_chembl_id>  (129) 
CHEMBL7002

>  <assay_type>  (129) 
B

>  <src_id>  (129) 
15

>  <ligand_efficiency>  (129) 
{u'le': u'0.28', u'bei': u'14.34', u'sei': u'5.92', u'lle': u'0.25'}

>  <standard_flag>  (129) 
True

>  <molecule_chembl_id>  (129) 
CHEMBL7002

>  <target_organism>  (129) 
Homo sapiens

>  <standard_units>  (129) 
nM

>  <record_id>  (129) 
1539617

>  <document_chembl_id>  (129) 
CHEMBL1909046

>  <bao_format>  (129) 
BAO_0000249

>  <data_validity_description>  (129) 
None

>  <activity_id>  (129) 
7684287

>  <standard_type>  (129) 
IC50

>  <target_chembl_id>  (129) 
CHEMBL1867

>  <data_validity_comment>  (129) 
None

>  <published_value>  (129) 
16.551

>  <document_year>  (129) 
None

>  <target_pref_name>  (129) 
Alpha-2a adrenergic receptor

>  <assay_chembl_id>  (129) 
CHEMBL1909088

>  <standard_relation>  (129) 
=

>  <assay_description>  (129) 
DRUGMATRIX: Alpha-2A adrenergic receptor radioligand binding (ligand: MK-912)

>  <published_relation>  (129) 
=

>  <standard_value>  (129) 
16551

>  <qudt_units>  (129) 
http://www.openphacts.org/units/Nanomolar

>  <target_tax_id>  (129) 
9606

>  <bao_label>  (129) 
cell membrane format

>  <published_units>  (129) 
uM

>  <pchembl_value>  (129) 
4.78

>  <published_type>  (129) 
IC50

>  <activity_comment>  (129) 
None

$$$$

     RDKit          

 32 34  0  0  0  0  0  0  0  0999 V2000
    0.0000    0.0000    0.0000 C   0  0  0  0  0  0  0  0  0  0  0  0
    0.0000    0.0000    0.0000 O   0  0  0  0  0  0  0  0  0  0  0  0
    0.0000    0.0000    0.0000 C   0  0  0  0  0  0  0  0  0  0  0  0
    0.0000    0.0000    0.0000 C   0  0  0  0  0  0  0  0  0  0  0  0
    0.0000    0.0000    0.0000 N   0  0  0  0  0  0  0  0  0  0  0  0
    0.0000    0.0000    0.0000 C   0  0  0  0  0  0  0  0  0  0  0  0
    0.0000    0.0000    0.0000 C   0  0  0  0  0  0  0  0  0  0  0  0
    0.0000    0.0000    0.0000 C   0  0  0  0  0  0  0  0  0  0  0  0
    0.0000    0.0000    0.0000 O   0  0  0  0  0  0  0  0  0  0  0  0
    0.0000    0.0000    0.0000 C   0  0  0  0  0  0  0  0  0  0  0  0
    0.0000    0.0000    0.0000 C   0  0  0  0  0  0  0  0  0  0  0  0
    0.0000    0.0000    0.0000 C   0  0  0  0  0  0  0  0  0  0  0  0
    0.0000    0.0000    0.0000 C   0  0  0  0  0  0  0  0  0  0  0  0
    0.0000    0.0000    0.0000 F   0  0  0  0  0  0  0  0  0  0  0  0
    0.0000    0.0000    0.0000 C   0  0  0  0  0  0  0  0  0  0  0  0
    0.0000    0.0000    0.0000 C   0  0  0  0  0  0  0  0  0  0  0  0
    0.0000    0.0000    0.0000 C   0  0  0  0  0  0  0  0  0  0  0  0
    0.0000    0.0000    0.0000 C   0  0  0  0  0  0  0  0  0  0  0  0
    0.0000    0.0000    0.0000 C   0  0  0  0  0  0  0  0  0  0  0  0
    0.0000    0.0000    0.0000 N   0  0  0  0  0  0  0  0  0  0  0  0
    0.0000    0.0000    0.0000 C   0  0  0  0  0  0  0  0  0  0  0  0
    0.0000    0.0000    0.0000 O   0  0  0  0  0  0  0  0  0  0  0  0
    0.0000    0.0000    0.0000 C   0  0  0  0  0  0  0  0  0  0  0  0
    0.0000    0.0000    0.0000 C   0  0  0  0  0  0  0  0  0  0  0  0
    0.0000    0.0000    0.0000 C   0  0  0  0  0  0  0  0  0  0  0  0
    0.0000    0.0000    0.0000 Cl  0  0  0  0  0  0  0  0  0  0  0  0
    0.0000    0.0000    0.0000 C   0  0  0  0  0  0  0  0  0  0  0  0
    0.0000    0.0000    0.0000 N   0  0  0  0  0  0  0  0  0  0  0  0
    0.0000    0.0000    0.0000 C   0  0  0  0  0  0  0  0  0  0  0  0
    0.0000    0.0000    0.0000 C   0  0  0  0  0  0  0  0  0  0  0  0
    0.0000    0.0000    0.0000 O   0  0  0  0  0  0  0  0  0  0  0  0
    0.0000    0.0000    0.0000 C   0  0  0  0  0  0  0  0  0  0  0  0
  1  2  1  0
  2  3  1  0
  3  4  1  0
  4  5  1  0
  5  6  1  0
  6  7  1  0
  7  8  1  0
  8  9  1  0
  9 10  1  0
 10 11  2  0
 11 12  1  0
 12 13  2  0
 13 14  1  0
 13 15  1  0
 15 16  2  0
  5 17  1  0
 17 18  1  0
 18 19  1  0
 19 20  1  0
 20 21  1  0
 21 22  2  0
 21 23  1  0
 23 24  2  0
 24 25  1  0
 25 26  1  0
 25 27  2  0
 27 28  1  0
 27 29  1  0
 29 30  2  0
 30 31  1  0
 31 32  1  0
 19  3  1  0
 16 10  1  0
 30 23  1  0
M  END
>  <pIC50>  (130) 
5.75

>  <ChEMBL_ID>  (130) 
CHEMBL1729

>  <document_journal>  (130) 
None

>  <bao_endpoint>  (130) 
BAO_0000190

>  <potential_duplicate>  (130) 
False

>  <uo_units>  (130) 
UO_0000065

>  <canonical_smiles>  (130) 
COC1CN(CCCOc2ccc(F)cc2)CCC1NC(=O)c3cc(Cl)c(N)cc3OC

>  <parent_molecule_chembl_id>  (130) 
CHEMBL1729

>  <assay_type>  (130) 
B

>  <src_id>  (130) 
15

>  <ligand_efficiency>  (130) 
{u'le': u'0.25', u'bei': u'12.34', u'sei': u'6.68', u'lle': u'2.96'}

>  <standard_flag>  (130) 
True

>  <molecule_chembl_id>  (130) 
CHEMBL1729

>  <target_organism>  (130) 
Homo sapiens

>  <standard_units>  (130) 
nM

>  <record_id>  (130) 
1539625

>  <document_chembl_id>  (130) 
CHEMBL1909046

>  <bao_format>  (130) 
BAO_0000249

>  <data_validity_description>  (130) 
None

>  <activity_id>  (130) 
7684381

>  <standard_type>  (130) 
IC50

>  <target_chembl_id>  (130) 
CHEMBL1867

>  <data_validity_comment>  (130) 
None

>  <published_value>  (130) 
1.777

>  <document_year>  (130) 
None

>  <target_pref_name>  (130) 
Alpha-2a adrenergic receptor

>  <assay_chembl_id>  (130) 
CHEMBL1909088

>  <standard_relation>  (130) 
=

>  <assay_description>  (130) 
DRUGMATRIX: Alpha-2A adrenergic receptor radioligand binding (ligand: MK-912)

>  <published_relation>  (130) 
=

>  <standard_value>  (130) 
1777

>  <qudt_units>  (130) 
http://www.openphacts.org/units/Nanomolar

>  <target_tax_id>  (130) 
9606

>  <bao_label>  (130) 
cell membrane format

>  <published_units>  (130) 
uM

>  <pchembl_value>  (130) 
5.75

>  <published_type>  (130) 
IC50

>  <activity_comment>  (130) 
None

$$$$

     RDKit          

 21 23  0  0  0  0  0  0  0  0999 V2000
    0.0000    0.0000    0.0000 C   0  0  0  0  0  0  0  0  0  0  0  0
    0.0000    0.0000    0.0000 N   0  0  0  0  0  0  0  0  0  0  0  0
    0.0000    0.0000    0.0000 C   0  0  0  0  0  0  0  0  0  0  0  0
    0.0000    0.0000    0.0000 C   0  0  0  0  0  0  0  0  0  0  0  0
    0.0000    0.0000    0.0000 C   0  0  0  0  0  0  0  0  0  0  0  0
    0.0000    0.0000    0.0000 C   0  0  0  0  0  0  0  0  0  0  0  0
    0.0000    0.0000    0.0000 C   0  0  0  0  0  0  0  0  0  0  0  0
    0.0000    0.0000    0.0000 C   0  0  0  0  0  0  0  0  0  0  0  0
    0.0000    0.0000    0.0000 C   0  0  0  0  0  0  0  0  0  0  0  0
    0.0000    0.0000    0.0000 C   0  0  0  0  0  0  0  0  0  0  0  0
    0.0000    0.0000    0.0000 C   0  0  0  0  0  0  0  0  0  0  0  0
    0.0000    0.0000    0.0000 C   0  0  0  0  0  0  0  0  0  0  0  0
    0.0000    0.0000    0.0000 C   0  0  0  0  0  0  0  0  0  0  0  0
    0.0000    0.0000    0.0000 C   0  0  0  0  0  0  0  0  0  0  0  0
    0.0000    0.0000    0.0000 O   0  0  0  0  0  0  0  0  0  0  0  0
    0.0000    0.0000    0.0000 C   0  0  0  0  0  0  0  0  0  0  0  0
    0.0000    0.0000    0.0000 C   0  0  0  0  0  0  0  0  0  0  0  0
    0.0000    0.0000    0.0000 C   0  0  0  0  0  0  0  0  0  0  0  0
    0.0000    0.0000    0.0000 C   0  0  0  0  0  0  0  0  0  0  0  0
    0.0000    0.0000    0.0000 C   0  0  0  0  0  0  0  0  0  0  0  0
    0.0000    0.0000    0.0000 C   0  0  0  0  0  0  0  0  0  0  0  0
  1  2  1  0
  2  3  1  0
  2  4  1  0
  4  5  1  0
  5  6  1  0
  6  7  2  3
  7  8  1  0
  8  9  2  0
  9 10  1  0
 10 11  2  0
 11 12  1  0
 12 13  2  0
 13 14  1  0
 14 15  1  0
 15 16  1  0
 16 17  2  0
 17 18  1  0
 18 19  2  0
 19 20  1  0
 20 21  2  0
 21  7  1  0
 13  8  1  0
 21 16  1  0
M  END
>  <pIC50>  (131) 
5.88

>  <ChEMBL_ID>  (131) 
CHEMBL1628227

>  <document_journal>  (131) 
None

>  <bao_endpoint>  (131) 
BAO_0000190

>  <potential_duplicate>  (131) 
False

>  <uo_units>  (131) 
UO_0000065

>  <canonical_smiles>  (131) 
CN(C)CCC=C1c2ccccc2COc3ccccc13

>  <parent_molecule_chembl_id>  (131) 
CHEMBL1628227

>  <assay_type>  (131) 
B

>  <src_id>  (131) 
15

>  <ligand_efficiency>  (131) 
{u'le': u'0.38', u'bei': u'21.03', u'sei': u'47.11', u'lle': u'1.96'}

>  <standard_flag>  (131) 
True

>  <molecule_chembl_id>  (131) 
CHEMBL1628227

>  <target_organism>  (131) 
Homo sapiens

>  <standard_units>  (131) 
nM

>  <record_id>  (131) 
1539716

>  <document_chembl_id>  (131) 
CHEMBL1909046

>  <bao_format>  (131) 
BAO_0000249

>  <data_validity_description>  (131) 
None

>  <activity_id>  (131) 
7688033

>  <standard_type>  (131) 
IC50

>  <target_chembl_id>  (131) 
CHEMBL1867

>  <data_validity_comment>  (131) 
None

>  <published_value>  (131) 
1.335

>  <document_year>  (131) 
None

>  <target_pref_name>  (131) 
Alpha-2a adrenergic receptor

>  <assay_chembl_id>  (131) 
CHEMBL1909088

>  <standard_relation>  (131) 
=

>  <assay_description>  (131) 
DRUGMATRIX: Alpha-2A adrenergic receptor radioligand binding (ligand: MK-912)

>  <published_relation>  (131) 
=

>  <standard_value>  (131) 
1335

>  <qudt_units>  (131) 
http://www.openphacts.org/units/Nanomolar

>  <target_tax_id>  (131) 
9606

>  <bao_label>  (131) 
cell membrane format

>  <published_units>  (131) 
uM

>  <pchembl_value>  (131) 
5.88

>  <published_type>  (131) 
IC50

>  <activity_comment>  (131) 
None

$$$$

     RDKit          

 20 22  0  0  0  0  0  0  0  0999 V2000
    0.0000    0.0000    0.0000 C   0  0  0  0  0  0  0  0  0  0  0  0
    0.0000    0.0000    0.0000 N   0  0  0  0  0  0  0  0  0  0  0  0
    0.0000    0.0000    0.0000 C   0  0  0  0  0  0  0  0  0  0  0  0
    0.0000    0.0000    0.0000 C   0  0  0  0  0  0  0  0  0  0  0  0
    0.0000    0.0000    0.0000 N   0  0  0  0  0  0  0  0  0  0  0  0
    0.0000    0.0000    0.0000 C   0  0  0  0  0  0  0  0  0  0  0  0
    0.0000    0.0000    0.0000 C   0  0  0  0  0  0  0  0  0  0  0  0
    0.0000    0.0000    0.0000 C   0  0  0  0  0  0  0  0  0  0  0  0
    0.0000    0.0000    0.0000 C   0  0  0  0  0  0  0  0  0  0  0  0
    0.0000    0.0000    0.0000 C   0  0  0  0  0  0  0  0  0  0  0  0
    0.0000    0.0000    0.0000 C   0  0  0  0  0  0  0  0  0  0  0  0
    0.0000    0.0000    0.0000 C   0  0  0  0  0  0  0  0  0  0  0  0
    0.0000    0.0000    0.0000 C   0  0  0  0  0  0  0  0  0  0  0  0
    0.0000    0.0000    0.0000 C   0  0  0  0  0  0  0  0  0  0  0  0
    0.0000    0.0000    0.0000 C   0  0  0  0  0  0  0  0  0  0  0  0
    0.0000    0.0000    0.0000 C   0  0  0  0  0  0  0  0  0  0  0  0
    0.0000    0.0000    0.0000 C   0  0  0  0  0  0  0  0  0  0  0  0
    0.0000    0.0000    0.0000 C   0  0  0  0  0  0  0  0  0  0  0  0
    0.0000    0.0000    0.0000 C   0  0  0  0  0  0  0  0  0  0  0  0
    0.0000    0.0000    0.0000 C   0  0  0  0  0  0  0  0  0  0  0  0
  1  2  1  0
  2  3  1  0
  3  4  1  0
  4  5  1  0
  5  6  1  0
  6  7  1  0
  5  8  1  0
  8  9  1  0
  9 10  2  0
 10 11  1  0
 11 12  2  0
 12 13  1  0
 13 14  2  0
  8 15  1  0
 15 16  2  0
 16 17  1  0
 17 18  2  0
 18 19  1  0
 19 20  2  0
  7  2  1  0
 14  9  1  0
 20 15  1  0
M  END
>  <pIC50>  (132) 
5.81

>  <ChEMBL_ID>  (132) 
CHEMBL648

>  <document_journal>  (132) 
None

>  <bao_endpoint>  (132) 
BAO_0000190

>  <potential_duplicate>  (132) 
False

>  <uo_units>  (132) 
UO_0000065

>  <canonical_smiles>  (132) 
CN1CCN(CC1)C(c2ccccc2)c3ccccc3

>  <parent_molecule_chembl_id>  (132) 
CHEMBL648

>  <assay_type>  (132) 
B

>  <src_id>  (132) 
15

>  <ligand_efficiency>  (132) 
{u'le': u'0.4', u'bei': u'21.81', u'sei': u'89.65', u'lle': u'2.34'}

>  <standard_flag>  (132) 
True

>  <molecule_chembl_id>  (132) 
CHEMBL648

>  <target_organism>  (132) 
Homo sapiens

>  <standard_units>  (132) 
nM

>  <record_id>  (132) 
1539660

>  <document_chembl_id>  (132) 
CHEMBL1909046

>  <bao_format>  (132) 
BAO_0000249

>  <data_validity_description>  (132) 
None

>  <activity_id>  (132) 
7691338

>  <standard_type>  (132) 
IC50

>  <target_chembl_id>  (132) 
CHEMBL1867

>  <data_validity_comment>  (132) 
None

>  <published_value>  (132) 
1.551

>  <document_year>  (132) 
None

>  <target_pref_name>  (132) 
Alpha-2a adrenergic receptor

>  <assay_chembl_id>  (132) 
CHEMBL1909088

>  <standard_relation>  (132) 
=

>  <assay_description>  (132) 
DRUGMATRIX: Alpha-2A adrenergic receptor radioligand binding (ligand: MK-912)

>  <published_relation>  (132) 
=

>  <standard_value>  (132) 
1551

>  <qudt_units>  (132) 
http://www.openphacts.org/units/Nanomolar

>  <target_tax_id>  (132) 
9606

>  <bao_label>  (132) 
cell membrane format

>  <published_units>  (132) 
uM

>  <pchembl_value>  (132) 
5.81

>  <published_type>  (132) 
IC50

>  <activity_comment>  (132) 
None

$$$$

     RDKit          

 45 52  0  0  0  0  0  0  0  0999 V2000
    0.0000    0.0000    0.0000 C   0  0  0  0  0  0  0  0  0  0  0  0
    0.0000    0.0000    0.0000 C   0  0  0  0  0  0  0  0  0  0  0  0
    0.0000    0.0000    0.0000 C   0  0  0  0  0  0  0  0  0  0  0  0
    0.0000    0.0000    0.0000 C   0  0  0  0  0  0  0  0  0  0  0  0
    0.0000    0.0000    0.0000 N   0  0  0  0  0  0  0  0  0  0  0  0
    0.0000    0.0000    0.0000 C   0  0  0  0  0  0  0  0  0  0  0  0
    0.0000    0.0000    0.0000 O   0  0  0  0  0  0  0  0  0  0  0  0
    0.0000    0.0000    0.0000 C   0  0  0  0  0  0  0  0  0  0  0  0
    0.0000    0.0000    0.0000 C   0  0  0  0  0  0  0  0  0  0  0  0
    0.0000    0.0000    0.0000 C   0  0  0  0  0  0  0  0  0  0  0  0
    0.0000    0.0000    0.0000 C   0  0  0  0  0  0  0  0  0  0  0  0
    0.0000    0.0000    0.0000 C   0  0  0  0  0  0  0  0  0  0  0  0
    0.0000    0.0000    0.0000 C   0  0  0  0  0  0  0  0  0  0  0  0
    0.0000    0.0000    0.0000 C   0  0  0  0  0  0  0  0  0  0  0  0
    0.0000    0.0000    0.0000 N   0  0  0  0  0  0  0  0  0  0  0  0
    0.0000    0.0000    0.0000 C   0  0  0  0  0  0  0  0  0  0  0  0
    0.0000    0.0000    0.0000 C   0  0  0  0  0  0  0  0  0  0  0  0
    0.0000    0.0000    0.0000 C   0  0  0  0  0  0  0  0  0  0  0  0
    0.0000    0.0000    0.0000 C   0  0  0  0  0  0  0  0  0  0  0  0
    0.0000    0.0000    0.0000 C   0  0  0  0  0  0  0  0  0  0  0  0
    0.0000    0.0000    0.0000 C   0  0  0  0  0  0  0  0  0  0  0  0
    0.0000    0.0000    0.0000 N   0  0  0  0  0  0  0  0  0  0  0  0
    0.0000    0.0000    0.0000 C   0  0  0  0  0  0  0  0  0  0  0  0
    0.0000    0.0000    0.0000 C   0  0  0  0  0  0  0  0  0  0  0  0
    0.0000    0.0000    0.0000 O   0  0  0  0  0  0  0  0  0  0  0  0
    0.0000    0.0000    0.0000 C   0  0  0  0  0  0  0  0  0  0  0  0
    0.0000    0.0000    0.0000 O   0  0  0  0  0  0  0  0  0  0  0  0
    0.0000    0.0000    0.0000 C   0  0  0  0  0  0  0  0  0  0  0  0
    0.0000    0.0000    0.0000 C   0  0  0  0  0  0  0  0  0  0  0  0
    0.0000    0.0000    0.0000 C   0  0  0  0  0  0  0  0  0  0  0  0
    0.0000    0.0000    0.0000 C   0  0  0  0  0  0  0  0  0  0  0  0
    0.0000    0.0000    0.0000 N   0  0  0  0  0  0  0  0  0  0  0  0
    0.0000    0.0000    0.0000 C   0  0  0  0  0  0  0  0  0  0  0  0
    0.0000    0.0000    0.0000 O   0  0  0  0  0  0  0  0  0  0  0  0
    0.0000    0.0000    0.0000 C   0  0  0  0  0  0  0  0  0  0  0  0
    0.0000    0.0000    0.0000 C   0  0  0  0  0  0  0  0  0  0  0  0
    0.0000    0.0000    0.0000 C   0  0  0  0  0  0  0  0  0  0  0  0
    0.0000    0.0000    0.0000 C   0  0  0  0  0  0  0  0  0  0  0  0
    0.0000    0.0000    0.0000 C   0  0  0  0  0  0  0  0  0  0  0  0
    0.0000    0.0000    0.0000 C   0  0  0  0  0  0  0  0  0  0  0  0
    0.0000    0.0000    0.0000 C   0  0  0  0  0  0  0  0  0  0  0  0
    0.0000    0.0000    0.0000 C   0  0  0  0  0  0  0  0  0  0  0  0
    0.0000    0.0000    0.0000 N   0  0  0  0  0  0  0  0  0  0  0  0
    0.0000    0.0000    0.0000 C   0  0  0  0  0  0  0  0  0  0  0  0
    0.0000    0.0000    0.0000 O   0  0  0  0  0  0  0  0  0  0  0  0
  1  2  1  0
  2  3  1  0
  2  4  1  0
  4  5  1  0
  5  6  1  0
  6  7  2  0
  6  8  1  0
  8  9  1  0
  9 10  1  0
 10 11  1  0
 11 12  1  0
 12 13  1  0
 13 14  2  0
 14 15  1  0
 15 16  1  0
 16 17  2  0
 17 18  1  0
 18 19  2  0
 19 20  1  0
 20 21  2  0
 11 22  1  0
 22 23  1  0
 22 24  1  0
  4 25  1  0
 25 26  1  0
 26 27  1  0
 26 28  1  0
 28 29  1  0
 29 30  1  0
 30 31  1  0
 31 32  1  0
 32 33  1  0
 33 34  2  0
 33 35  1  0
 35 36  1  0
 36 37  1  0
 37 38  2  0
 38 39  1  0
 39 40  2  0
 40 41  1  0
 41 42  2  0
 35 43  1  0
 43 44  1  0
 44 45  2  0
 44  4  1  0
 24  8  1  0
 20 10  1  0
 21 13  1  0
 21 16  1  0
 43 26  1  0
 32 28  1  0
 42 37  1  0
M  END
>  <pIC50>  (133) 
8.7

>  <ChEMBL_ID>  (133) 
CHEMBL1255837

>  <document_journal>  (133) 
None

>  <bao_endpoint>  (133) 
BAO_0000190

>  <potential_duplicate>  (133) 
False

>  <uo_units>  (133) 
UO_0000065

>  <canonical_smiles>  (133) 
CC(C)[C@@]1(NC(=O)[C@@H]2C[C@H]3[C@@H](Cc4c[nH]c5cccc3c45)N(C)C2)O[C@@]6(O)[C@@H]7CCCN7C(=O)[C@H](Cc8ccccc8)N6C1=O.CS(=O)(=O)O

>  <parent_molecule_chembl_id>  (133) 
CHEMBL601773

>  <assay_type>  (133) 
B

>  <src_id>  (133) 
15

>  <ligand_efficiency>  (133) 
{u'le': u'0.26', u'bei': u'14.22', u'sei': u'7.36', u'lle': u'4.4'}

>  <standard_flag>  (133) 
True

>  <molecule_chembl_id>  (133) 
CHEMBL1255837

>  <target_organism>  (133) 
Homo sapiens

>  <standard_units>  (133) 
nM

>  <record_id>  (133) 
1539701

>  <document_chembl_id>  (133) 
CHEMBL1909046

>  <bao_format>  (133) 
BAO_0000249

>  <data_validity_description>  (133) 
None

>  <activity_id>  (133) 
7692084

>  <standard_type>  (133) 
IC50

>  <target_chembl_id>  (133) 
CHEMBL1867

>  <data_validity_comment>  (133) 
None

>  <published_value>  (133) 
0.001993

>  <document_year>  (133) 
None

>  <target_pref_name>  (133) 
Alpha-2a adrenergic receptor

>  <assay_chembl_id>  (133) 
CHEMBL1909088

>  <standard_relation>  (133) 
=

>  <assay_description>  (133) 
DRUGMATRIX: Alpha-2A adrenergic receptor radioligand binding (ligand: MK-912)

>  <published_relation>  (133) 
=

>  <standard_value>  (133) 
1.993

>  <qudt_units>  (133) 
http://www.openphacts.org/units/Nanomolar

>  <target_tax_id>  (133) 
9606

>  <bao_label>  (133) 
cell membrane format

>  <published_units>  (133) 
uM

>  <pchembl_value>  (133) 
8.7

>  <published_type>  (133) 
IC50

>  <activity_comment>  (133) 
None

$$$$

     RDKit          

 43 50  0  0  0  0  0  0  0  0999 V2000
    0.0000    0.0000    0.0000 C   0  0  0  0  0  0  0  0  0  0  0  0
    0.0000    0.0000    0.0000 N   0  0  0  0  0  0  0  0  0  0  0  0
    0.0000    0.0000    0.0000 C   0  0  0  0  0  0  0  0  0  0  0  0
    0.0000    0.0000    0.0000 C   0  0  0  0  0  0  0  0  0  0  0  0
    0.0000    0.0000    0.0000 C   0  0  0  0  0  0  0  0  0  0  0  0
    0.0000    0.0000    0.0000 C   0  0  0  0  0  0  0  0  0  0  0  0
    0.0000    0.0000    0.0000 C   0  0  0  0  0  0  0  0  0  0  0  0
    0.0000    0.0000    0.0000 C   0  0  0  0  0  0  0  0  0  0  0  0
    0.0000    0.0000    0.0000 C   0  0  0  0  0  0  0  0  0  0  0  0
    0.0000    0.0000    0.0000 C   0  0  0  0  0  0  0  0  0  0  0  0
    0.0000    0.0000    0.0000 N   0  0  0  0  0  0  0  0  0  0  0  0
    0.0000    0.0000    0.0000 C   0  0  0  0  0  0  0  0  0  0  0  0
    0.0000    0.0000    0.0000 C   0  0  0  0  0  0  0  0  0  0  0  0
    0.0000    0.0000    0.0000 C   0  0  0  0  0  0  0  0  0  0  0  0
    0.0000    0.0000    0.0000 C   0  0  0  0  0  0  0  0  0  0  0  0
    0.0000    0.0000    0.0000 C   0  0  0  0  0  0  0  0  0  0  0  0
    0.0000    0.0000    0.0000 C   0  0  0  0  0  0  0  0  0  0  0  0
    0.0000    0.0000    0.0000 C   0  0  0  0  0  0  0  0  0  0  0  0
    0.0000    0.0000    0.0000 O   0  0  0  0  0  0  0  0  0  0  0  0
    0.0000    0.0000    0.0000 N   0  0  0  0  0  0  0  0  0  0  0  0
    0.0000    0.0000    0.0000 C   0  0  0  0  0  0  0  0  0  0  0  0
    0.0000    0.0000    0.0000 C   0  0  0  0  0  0  0  0  0  0  0  0
    0.0000    0.0000    0.0000 O   0  0  0  0  0  0  0  0  0  0  0  0
    0.0000    0.0000    0.0000 C   0  0  0  0  0  0  0  0  0  0  0  0
    0.0000    0.0000    0.0000 O   0  0  0  0  0  0  0  0  0  0  0  0
    0.0000    0.0000    0.0000 C   0  0  0  0  0  0  0  0  0  0  0  0
    0.0000    0.0000    0.0000 C   0  0  0  0  0  0  0  0  0  0  0  0
    0.0000    0.0000    0.0000 C   0  0  0  0  0  0  0  0  0  0  0  0
    0.0000    0.0000    0.0000 C   0  0  0  0  0  0  0  0  0  0  0  0
    0.0000    0.0000    0.0000 N   0  0  0  0  0  0  0  0  0  0  0  0
    0.0000    0.0000    0.0000 C   0  0  0  0  0  0  0  0  0  0  0  0
    0.0000    0.0000    0.0000 O   0  0  0  0  0  0  0  0  0  0  0  0
    0.0000    0.0000    0.0000 C   0  0  0  0  0  0  0  0  0  0  0  0
    0.0000    0.0000    0.0000 C   0  0  0  0  0  0  0  0  0  0  0  0
    0.0000    0.0000    0.0000 C   0  0  0  0  0  0  0  0  0  0  0  0
    0.0000    0.0000    0.0000 C   0  0  0  0  0  0  0  0  0  0  0  0
    0.0000    0.0000    0.0000 C   0  0  0  0  0  0  0  0  0  0  0  0
    0.0000    0.0000    0.0000 C   0  0  0  0  0  0  0  0  0  0  0  0
    0.0000    0.0000    0.0000 C   0  0  0  0  0  0  0  0  0  0  0  0
    0.0000    0.0000    0.0000 C   0  0  0  0  0  0  0  0  0  0  0  0
    0.0000    0.0000    0.0000 N   0  0  0  0  0  0  0  0  0  0  0  0
    0.0000    0.0000    0.0000 C   0  0  0  0  0  0  0  0  0  0  0  0
    0.0000    0.0000    0.0000 O   0  0  0  0  0  0  0  0  0  0  0  0
  1  2  1  0
  2  3  1  0
  3  4  1  0
  4  5  1  0
  5  6  1  0
  6  7  1  0
  7  8  1  0
  8  9  1  0
  9 10  2  0
 10 11  1  0
 11 12  1  0
 12 13  2  0
 13 14  1  0
 14 15  2  0
 15 16  1  0
 16 17  2  0
  4 18  1  0
 18 19  2  0
 18 20  1  0
 20 21  1  0
 21 22  1  0
 21 23  1  0
 23 24  1  0
 24 25  1  0
 24 26  1  0
 26 27  1  0
 27 28  1  0
 28 29  1  0
 29 30  1  0
 30 31  1  0
 31 32  2  0
 31 33  1  0
 33 34  1  0
 34 35  1  0
 35 36  2  0
 36 37  1  0
 37 38  2  0
 38 39  1  0
 39 40  2  0
 33 41  1  0
 41 42  1  0
 42 43  2  0
  7  2  1  0
 16  6  1  0
 17  9  1  0
 17 12  1  0
 42 21  1  0
 41 24  1  0
 30 26  1  0
 40 35  1  0
M  END
>  <pIC50>  (134) 
8.99

>  <ChEMBL_ID>  (134) 
CHEMBL1732

>  <document_journal>  (134) 
None

>  <bao_endpoint>  (134) 
BAO_0000190

>  <potential_duplicate>  (134) 
False

>  <uo_units>  (134) 
UO_0000065

>  <canonical_smiles>  (134) 
CN1C[C@@H](C[C@H]2[C@H]1Cc3c[nH]c4cccc2c34)C(=O)N[C@]5(C)O[C@@]6(O)[C@@H]7CCCN7C(=O)[C@H](Cc8ccccc8)N6C5=O

>  <parent_molecule_chembl_id>  (134) 
CHEMBL1732

>  <assay_type>  (134) 
B

>  <src_id>  (134) 
15

>  <ligand_efficiency>  (134) 
{u'le': u'0.29', u'bei': u'15.4', u'sei': u'7.6', u'lle': u'5.79'}

>  <standard_flag>  (134) 
True

>  <molecule_chembl_id>  (134) 
CHEMBL1732

>  <target_organism>  (134) 
Homo sapiens

>  <standard_units>  (134) 
nM

>  <record_id>  (134) 
1539702

>  <document_chembl_id>  (134) 
CHEMBL1909046

>  <bao_format>  (134) 
BAO_0000249

>  <data_validity_description>  (134) 
None

>  <activity_id>  (134) 
7696370

>  <standard_type>  (134) 
IC50

>  <target_chembl_id>  (134) 
CHEMBL1867

>  <data_validity_comment>  (134) 
None

>  <published_value>  (134) 
0.001032

>  <document_year>  (134) 
None

>  <target_pref_name>  (134) 
Alpha-2a adrenergic receptor

>  <assay_chembl_id>  (134) 
CHEMBL1909088

>  <standard_relation>  (134) 
=

>  <assay_description>  (134) 
DRUGMATRIX: Alpha-2A adrenergic receptor radioligand binding (ligand: MK-912)

>  <published_relation>  (134) 
=

>  <standard_value>  (134) 
1.032

>  <qudt_units>  (134) 
http://www.openphacts.org/units/Nanomolar

>  <target_tax_id>  (134) 
9606

>  <bao_label>  (134) 
cell membrane format

>  <published_units>  (134) 
uM

>  <pchembl_value>  (134) 
8.99

>  <published_type>  (134) 
IC50

>  <activity_comment>  (134) 
None

$$$$

     RDKit          

 16 15  0  0  0  0  0  0  0  0999 V2000
    0.0000    0.0000    0.0000 C   0  0  0  0  0  0  0  0  0  0  0  0
    0.0000    0.0000    0.0000 C   0  0  0  0  0  0  0  0  0  0  0  0
    0.0000    0.0000    0.0000 N   0  0  0  0  0  0  0  0  0  0  0  0
    0.0000    0.0000    0.0000 C   0  0  0  0  0  0  0  0  0  0  0  0
    0.0000    0.0000    0.0000 C   0  0  0  0  0  0  0  0  0  0  0  0
    0.0000    0.0000    0.0000 C   0  0  0  0  0  0  0  0  0  0  0  0
    0.0000    0.0000    0.0000 S   0  0  0  0  0  0  0  0  0  0  0  0
    0.0000    0.0000    0.0000 S   0  0  0  0  0  0  0  0  0  0  0  0
    0.0000    0.0000    0.0000 S   0  0  0  0  0  0  0  0  0  0  0  0
    0.0000    0.0000    0.0000 C   0  0  0  0  0  0  0  0  0  0  0  0
    0.0000    0.0000    0.0000 S   0  0  0  0  0  0  0  0  0  0  0  0
    0.0000    0.0000    0.0000 N   0  0  0  0  0  0  0  0  0  0  0  0
    0.0000    0.0000    0.0000 C   0  0  0  0  0  0  0  0  0  0  0  0
    0.0000    0.0000    0.0000 C   0  0  0  0  0  0  0  0  0  0  0  0
    0.0000    0.0000    0.0000 C   0  0  0  0  0  0  0  0  0  0  0  0
    0.0000    0.0000    0.0000 C   0  0  0  0  0  0  0  0  0  0  0  0
  1  2  1  0
  2  3  1  0
  3  4  1  0
  4  5  1  0
  3  6  1  0
  6  7  2  0
  6  8  1  0
  8  9  1  0
  9 10  1  0
 10 11  2  0
 10 12  1  0
 12 13  1  0
 13 14  1  0
 12 15  1  0
 15 16  1  0
M  END
>  <pIC50>  (135) 
5.31

>  <ChEMBL_ID>  (135) 
CHEMBL964

>  <document_journal>  (135) 
None

>  <bao_endpoint>  (135) 
BAO_0000190

>  <potential_duplicate>  (135) 
False

>  <uo_units>  (135) 
UO_0000065

>  <canonical_smiles>  (135) 
CCN(CC)C(=S)SSC(=S)N(CC)CC

>  <parent_molecule_chembl_id>  (135) 
CHEMBL964

>  <assay_type>  (135) 
B

>  <src_id>  (135) 
15

>  <ligand_efficiency>  (135) 
{u'le': u'0.45', u'bei': u'17.9', u'sei': u'4.38', u'lle': u'-0.29'}

>  <standard_flag>  (135) 
True

>  <molecule_chembl_id>  (135) 
CHEMBL964

>  <target_organism>  (135) 
Homo sapiens

>  <standard_units>  (135) 
nM

>  <record_id>  (135) 
1539710

>  <document_chembl_id>  (135) 
CHEMBL1909046

>  <bao_format>  (135) 
BAO_0000249

>  <data_validity_description>  (135) 
None

>  <activity_id>  (135) 
7696440

>  <standard_type>  (135) 
IC50

>  <target_chembl_id>  (135) 
CHEMBL1867

>  <data_validity_comment>  (135) 
None

>  <published_value>  (135) 
4.904

>  <document_year>  (135) 
None

>  <target_pref_name>  (135) 
Alpha-2a adrenergic receptor

>  <assay_chembl_id>  (135) 
CHEMBL1909088

>  <standard_relation>  (135) 
=

>  <assay_description>  (135) 
DRUGMATRIX: Alpha-2A adrenergic receptor radioligand binding (ligand: MK-912)

>  <published_relation>  (135) 
=

>  <standard_value>  (135) 
4904

>  <qudt_units>  (135) 
http://www.openphacts.org/units/Nanomolar

>  <target_tax_id>  (135) 
9606

>  <bao_label>  (135) 
cell membrane format

>  <published_units>  (135) 
uM

>  <pchembl_value>  (135) 
5.31

>  <published_type>  (135) 
IC50

>  <activity_comment>  (135) 
None

$$$$

     RDKit          

 25 28  0  0  0  0  0  0  0  0999 V2000
    0.0000    0.0000    0.0000 Cl  0  0  0  0  0  0  0  0  0  0  0  0
    0.0000    0.0000    0.0000 C   0  0  0  0  0  0  0  0  0  0  0  0
    0.0000    0.0000    0.0000 C   0  0  0  0  0  0  0  0  0  0  0  0
    0.0000    0.0000    0.0000 C   0  0  0  0  0  0  0  0  0  0  0  0
    0.0000    0.0000    0.0000 C   0  0  0  0  0  0  0  0  0  0  0  0
    0.0000    0.0000    0.0000 C   0  0  0  0  0  0  0  0  0  0  0  0
    0.0000    0.0000    0.0000 C   0  0  0  0  0  0  0  0  0  0  0  0
    0.0000    0.0000    0.0000 C   0  0  0  0  0  0  0  0  0  0  0  0
    0.0000    0.0000    0.0000 C   0  0  0  0  0  0  0  0  0  0  0  0
    0.0000    0.0000    0.0000 C   0  0  0  0  0  0  0  0  0  0  0  0
    0.0000    0.0000    0.0000 C   0  0  0  0  0  0  0  0  0  0  0  0
    0.0000    0.0000    0.0000 C   0  0  0  0  0  0  0  0  0  0  0  0
    0.0000    0.0000    0.0000 C   0  0  0  0  0  0  0  0  0  0  0  0
    0.0000    0.0000    0.0000 C   0  0  0  0  0  0  0  0  0  0  0  0
    0.0000    0.0000    0.0000 C   0  0  0  0  0  0  0  0  0  0  0  0
    0.0000    0.0000    0.0000 C   0  0  0  0  0  0  0  0  0  0  0  0
    0.0000    0.0000    0.0000 C   0  0  0  0  0  0  0  0  0  0  0  0
    0.0000    0.0000    0.0000 C   0  0  0  0  0  0  0  0  0  0  0  0
    0.0000    0.0000    0.0000 C   0  0  0  0  0  0  0  0  0  0  0  0
    0.0000    0.0000    0.0000 C   0  0  0  0  0  0  0  0  0  0  0  0
    0.0000    0.0000    0.0000 N   0  0  0  0  0  0  0  0  0  0  0  0
    0.0000    0.0000    0.0000 C   0  0  0  0  0  0  0  0  0  0  0  0
    0.0000    0.0000    0.0000 C   0  0  0  0  0  0  0  0  0  0  0  0
    0.0000    0.0000    0.0000 N   0  0  0  0  0  0  0  0  0  0  0  0
    0.0000    0.0000    0.0000 C   0  0  0  0  0  0  0  0  0  0  0  0
  1  2  1  0
  2  3  2  0
  3  4  1  0
  4  5  2  0
  5  6  1  0
  6  7  2  0
  7  8  1  0
  8  9  1  0
  9 10  2  0
 10 11  1  0
 11 12  2  0
 12 13  1  0
 13 14  2  0
  8 15  1  0
 15 16  2  0
 16 17  1  0
 17 18  2  0
 18 19  1  0
 19 20  2  0
  8 21  1  0
 21 22  1  0
 22 23  2  0
 23 24  1  0
 24 25  2  0
  7  2  1  0
 14  9  1  0
 20 15  1  0
 25 21  1  0
M  END
>  <pIC50>  (136) 
4.93

>  <ChEMBL_ID>  (136) 
CHEMBL104

>  <document_journal>  (136) 
None

>  <bao_endpoint>  (136) 
BAO_0000190

>  <potential_duplicate>  (136) 
False

>  <uo_units>  (136) 
UO_0000065

>  <canonical_smiles>  (136) 
Clc1ccccc1C(c2ccccc2)(c3ccccc3)n4ccnc4

>  <parent_molecule_chembl_id>  (136) 
CHEMBL104

>  <assay_type>  (136) 
B

>  <src_id>  (136) 
15

>  <ligand_efficiency>  (136) 
{u'le': u'0.27', u'bei': u'14.28', u'sei': u'27.64', u'lle': u'-0.3'}

>  <standard_flag>  (136) 
True

>  <molecule_chembl_id>  (136) 
CHEMBL104

>  <target_organism>  (136) 
Homo sapiens

>  <standard_units>  (136) 
nM

>  <record_id>  (136) 
1539645

>  <document_chembl_id>  (136) 
CHEMBL1909046

>  <bao_format>  (136) 
BAO_0000249

>  <data_validity_description>  (136) 
None

>  <activity_id>  (136) 
7697486

>  <standard_type>  (136) 
IC50

>  <target_chembl_id>  (136) 
CHEMBL1867

>  <data_validity_comment>  (136) 
None

>  <published_value>  (136) 
11.886

>  <document_year>  (136) 
None

>  <target_pref_name>  (136) 
Alpha-2a adrenergic receptor

>  <assay_chembl_id>  (136) 
CHEMBL1909088

>  <standard_relation>  (136) 
=

>  <assay_description>  (136) 
DRUGMATRIX: Alpha-2A adrenergic receptor radioligand binding (ligand: MK-912)

>  <published_relation>  (136) 
=

>  <standard_value>  (136) 
11886

>  <qudt_units>  (136) 
http://www.openphacts.org/units/Nanomolar

>  <target_tax_id>  (136) 
9606

>  <bao_label>  (136) 
cell membrane format

>  <published_units>  (136) 
uM

>  <pchembl_value>  (136) 
4.93

>  <published_type>  (136) 
IC50

>  <activity_comment>  (136) 
None

$$$$

     RDKit          

 20 21  0  0  0  0  0  0  0  0999 V2000
    0.0000    0.0000    0.0000 C   0  0  0  0  0  0  0  0  0  0  0  0
    0.0000    0.0000    0.0000 C   0  0  0  0  0  0  0  0  0  0  0  0
    0.0000    0.0000    0.0000 C   0  0  0  0  0  0  0  0  0  0  0  0
    0.0000    0.0000    0.0000 C   0  0  0  0  0  0  0  0  0  0  0  0
    0.0000    0.0000    0.0000 C   0  0  0  0  0  0  0  0  0  0  0  0
    0.0000    0.0000    0.0000 C   0  0  0  0  0  0  0  0  0  0  0  0
    0.0000    0.0000    0.0000 C   0  0  0  0  0  0  0  0  0  0  0  0
    0.0000    0.0000    0.0000 C   0  0  0  0  0  0  0  0  0  0  0  0
    0.0000    0.0000    0.0000 C   0  0  0  0  0  0  0  0  0  0  0  0
    0.0000    0.0000    0.0000 C   0  0  0  0  0  0  0  0  0  0  0  0
    0.0000    0.0000    0.0000 O   0  0  0  0  0  0  0  0  0  0  0  0
    0.0000    0.0000    0.0000 C   0  0  0  0  0  0  0  0  0  0  0  0
    0.0000    0.0000    0.0000 C   0  0  0  0  0  0  0  0  0  0  0  0
    0.0000    0.0000    0.0000 C   0  0  0  0  0  0  0  0  0  0  0  0
    0.0000    0.0000    0.0000 C   0  0  0  0  0  0  0  0  0  0  0  0
    0.0000    0.0000    0.0000 C   0  0  0  0  0  0  0  0  0  0  0  0
    0.0000    0.0000    0.0000 C   0  0  0  0  0  0  0  0  0  0  0  0
    0.0000    0.0000    0.0000 O   0  0  0  0  0  0  0  0  0  0  0  0
    0.0000    0.0000    0.0000 C   0  0  0  0  0  0  0  0  0  0  0  0
    0.0000    0.0000    0.0000 C   0  0  0  0  0  0  0  0  0  0  0  0
  1  2  1  0
  2  3  1  0
  3  4  2  0
  4  5  1  0
  5  6  1  0
  4  7  1  0
  7  8  2  0
  8  9  1  0
  9 10  2  0
 10 11  1  0
 10 12  1  0
 12 13  2  0
  3 14  1  0
 14 15  2  0
 15 16  1  0
 16 17  2  0
 17 18  1  0
 17 19  1  0
 19 20  2  0
 13  7  1  0
 20 14  1  0
M  END
>  <pIC50>  (137) 
4.85

>  <ChEMBL_ID>  (137) 
CHEMBL411

>  <document_journal>  (137) 
None

>  <bao_endpoint>  (137) 
BAO_0000190

>  <potential_duplicate>  (137) 
False

>  <uo_units>  (137) 
UO_0000065

>  <canonical_smiles>  (137) 
CC\C(=C(\CC)/c1ccc(O)cc1)\c2ccc(O)cc2

>  <parent_molecule_chembl_id>  (137) 
CHEMBL411

>  <assay_type>  (137) 
B

>  <src_id>  (137) 
15

>  <ligand_efficiency>  (137) 
{u'le': u'0.33', u'bei': u'18.07', u'sei': u'11.99', u'lle': u'-0.29'}

>  <standard_flag>  (137) 
True

>  <molecule_chembl_id>  (137) 
CHEMBL411

>  <target_organism>  (137) 
Homo sapiens

>  <standard_units>  (137) 
nM

>  <record_id>  (137) 
1539695

>  <document_chembl_id>  (137) 
CHEMBL1909046

>  <bao_format>  (137) 
BAO_0000249

>  <data_validity_description>  (137) 
None

>  <activity_id>  (137) 
7702640

>  <standard_type>  (137) 
IC50

>  <target_chembl_id>  (137) 
CHEMBL1867

>  <data_validity_comment>  (137) 
None

>  <published_value>  (137) 
14.127

>  <document_year>  (137) 
None

>  <target_pref_name>  (137) 
Alpha-2a adrenergic receptor

>  <assay_chembl_id>  (137) 
CHEMBL1909088

>  <standard_relation>  (137) 
=

>  <assay_description>  (137) 
DRUGMATRIX: Alpha-2A adrenergic receptor radioligand binding (ligand: MK-912)

>  <published_relation>  (137) 
=

>  <standard_value>  (137) 
14127

>  <qudt_units>  (137) 
http://www.openphacts.org/units/Nanomolar

>  <target_tax_id>  (137) 
9606

>  <bao_label>  (137) 
cell membrane format

>  <published_units>  (137) 
uM

>  <pchembl_value>  (137) 
4.85

>  <published_type>  (137) 
IC50

>  <activity_comment>  (137) 
None

$$$$

     RDKit          

 29 31  0  0  0  0  0  0  0  0999 V2000
    0.0000    0.0000    0.0000 C   0  0  0  0  0  0  0  0  0  0  0  0
    0.0000    0.0000    0.0000 C   0  0  0  0  0  0  0  0  0  0  0  0
    0.0000    0.0000    0.0000 N   0  0  0  0  0  0  0  0  0  0  0  0
    0.0000    0.0000    0.0000 C   0  0  0  0  0  0  0  0  0  0  0  0
    0.0000    0.0000    0.0000 C   0  0  0  0  0  0  0  0  0  0  0  0
    0.0000    0.0000    0.0000 C   0  0  0  0  0  0  0  0  0  0  0  0
    0.0000    0.0000    0.0000 C   0  0  0  0  0  0  0  0  0  0  0  0
    0.0000    0.0000    0.0000 O   0  0  0  0  0  0  0  0  0  0  0  0
    0.0000    0.0000    0.0000 C   0  0  0  0  0  0  0  0  0  0  0  0
    0.0000    0.0000    0.0000 C   0  0  0  0  0  0  0  0  0  0  0  0
    0.0000    0.0000    0.0000 C   0  0  0  0  0  0  0  0  0  0  0  0
    0.0000    0.0000    0.0000 C   0  0  0  0  0  0  0  0  0  0  0  0
    0.0000    0.0000    0.0000 C   0  0  0  0  0  0  0  0  0  0  0  0
    0.0000    0.0000    0.0000 C   0  0  0  0  0  0  0  0  0  0  0  0
    0.0000    0.0000    0.0000 C   0  0  0  0  0  0  0  0  0  0  0  0
    0.0000    0.0000    0.0000 C   0  0  0  0  0  0  0  0  0  0  0  0
    0.0000    0.0000    0.0000 Cl  0  0  0  0  0  0  0  0  0  0  0  0
    0.0000    0.0000    0.0000 C   0  0  0  0  0  0  0  0  0  0  0  0
    0.0000    0.0000    0.0000 C   0  0  0  0  0  0  0  0  0  0  0  0
    0.0000    0.0000    0.0000 C   0  0  0  0  0  0  0  0  0  0  0  0
    0.0000    0.0000    0.0000 C   0  0  0  0  0  0  0  0  0  0  0  0
    0.0000    0.0000    0.0000 C   0  0  0  0  0  0  0  0  0  0  0  0
    0.0000    0.0000    0.0000 C   0  0  0  0  0  0  0  0  0  0  0  0
    0.0000    0.0000    0.0000 C   0  0  0  0  0  0  0  0  0  0  0  0
    0.0000    0.0000    0.0000 C   0  0  0  0  0  0  0  0  0  0  0  0
    0.0000    0.0000    0.0000 C   0  0  0  0  0  0  0  0  0  0  0  0
    0.0000    0.0000    0.0000 C   0  0  0  0  0  0  0  0  0  0  0  0
    0.0000    0.0000    0.0000 C   0  0  0  0  0  0  0  0  0  0  0  0
    0.0000    0.0000    0.0000 C   0  0  0  0  0  0  0  0  0  0  0  0
  1  2  1  0
  2  3  1  0
  3  4  1  0
  4  5  1  0
  3  6  1  0
  6  7  1  0
  7  8  1  0
  8  9  1  0
  9 10  2  0
 10 11  1  0
 11 12  2  0
 12 13  1  0
 13 14  2  0
 12 15  1  0
 15 16  2  0
 16 17  1  0
 16 18  1  0
 18 19  2  0
 19 20  1  0
 20 21  2  0
 21 22  1  0
 22 23  2  0
 15 24  1  0
 24 25  2  0
 25 26  1  0
 26 27  2  0
 27 28  1  0
 28 29  2  0
 14  9  1  0
 23 18  1  0
 29 24  1  0
M  END
>  <pIC50>  (138) 
6.03

>  <ChEMBL_ID>  (138) 
CHEMBL954

>  <document_journal>  (138) 
None

>  <bao_endpoint>  (138) 
BAO_0000190

>  <potential_duplicate>  (138) 
False

>  <uo_units>  (138) 
UO_0000065

>  <canonical_smiles>  (138) 
CCN(CC)CCOc1ccc(cc1)\C(=C(\Cl)/c2ccccc2)\c3ccccc3

>  <parent_molecule_chembl_id>  (138) 
CHEMBL954

>  <assay_type>  (138) 
B

>  <src_id>  (138) 
15

>  <ligand_efficiency>  (138) 
{u'le': u'0.28', u'bei': u'14.85', u'sei': u'48.35', u'lle': u'-0.45'}

>  <standard_flag>  (138) 
True

>  <molecule_chembl_id>  (138) 
CHEMBL954

>  <target_organism>  (138) 
Homo sapiens

>  <standard_units>  (138) 
nM

>  <record_id>  (138) 
1539638

>  <document_chembl_id>  (138) 
CHEMBL1909046

>  <bao_format>  (138) 
BAO_0000249

>  <data_validity_description>  (138) 
None

>  <activity_id>  (138) 
7703921

>  <standard_type>  (138) 
IC50

>  <target_chembl_id>  (138) 
CHEMBL1867

>  <data_validity_comment>  (138) 
None

>  <published_value>  (138) 
0.936

>  <document_year>  (138) 
None

>  <target_pref_name>  (138) 
Alpha-2a adrenergic receptor

>  <assay_chembl_id>  (138) 
CHEMBL1909088

>  <standard_relation>  (138) 
=

>  <assay_description>  (138) 
DRUGMATRIX: Alpha-2A adrenergic receptor radioligand binding (ligand: MK-912)

>  <published_relation>  (138) 
=

>  <standard_value>  (138) 
936

>  <qudt_units>  (138) 
http://www.openphacts.org/units/Nanomolar

>  <target_tax_id>  (138) 
9606

>  <bao_label>  (138) 
cell membrane format

>  <published_units>  (138) 
uM

>  <pchembl_value>  (138) 
6.03

>  <published_type>  (138) 
IC50

>  <activity_comment>  (138) 
None

$$$$

     RDKit          

 23 26  0  0  0  0  0  0  0  0999 V2000
    0.0000    0.0000    0.0000 C   0  0  0  0  0  0  0  0  0  0  0  0
    0.0000    0.0000    0.0000 N   0  0  0  0  0  0  0  0  0  0  0  0
    0.0000    0.0000    0.0000 C   0  0  0  0  0  0  0  0  0  0  0  0
    0.0000    0.0000    0.0000 C   0  0  0  0  0  0  0  0  0  0  0  0
    0.0000    0.0000    0.0000 N   0  0  0  0  0  0  0  0  0  0  0  0
    0.0000    0.0000    0.0000 C   0  0  0  0  0  0  0  0  0  0  0  0
    0.0000    0.0000    0.0000 C   0  0  0  0  0  0  0  0  0  0  0  0
    0.0000    0.0000    0.0000 C   0  0  0  0  0  0  0  0  0  0  0  0
    0.0000    0.0000    0.0000 N   0  0  0  0  0  0  0  0  0  0  0  0
    0.0000    0.0000    0.0000 C   0  0  0  0  0  0  0  0  0  0  0  0
    0.0000    0.0000    0.0000 C   0  0  0  0  0  0  0  0  0  0  0  0
    0.0000    0.0000    0.0000 C   0  0  0  0  0  0  0  0  0  0  0  0
    0.0000    0.0000    0.0000 Cl  0  0  0  0  0  0  0  0  0  0  0  0
    0.0000    0.0000    0.0000 C   0  0  0  0  0  0  0  0  0  0  0  0
    0.0000    0.0000    0.0000 C   0  0  0  0  0  0  0  0  0  0  0  0
    0.0000    0.0000    0.0000 C   0  0  0  0  0  0  0  0  0  0  0  0
    0.0000    0.0000    0.0000 N   0  0  0  0  0  0  0  0  0  0  0  0
    0.0000    0.0000    0.0000 C   0  0  0  0  0  0  0  0  0  0  0  0
    0.0000    0.0000    0.0000 C   0  0  0  0  0  0  0  0  0  0  0  0
    0.0000    0.0000    0.0000 C   0  0  0  0  0  0  0  0  0  0  0  0
    0.0000    0.0000    0.0000 C   0  0  0  0  0  0  0  0  0  0  0  0
    0.0000    0.0000    0.0000 C   0  0  0  0  0  0  0  0  0  0  0  0
    0.0000    0.0000    0.0000 C   0  0  0  0  0  0  0  0  0  0  0  0
  1  2  1  0
  2  3  1  0
  3  4  1  0
  4  5  1  0
  5  6  1  0
  6  7  1  0
  5  8  1  0
  8  9  2  0
  9 10  1  0
 10 11  2  0
 11 12  1  0
 12 13  1  0
 12 14  2  0
 14 15  1  0
 15 16  2  0
 16 17  1  0
 17 18  1  0
 18 19  2  0
 19 20  1  0
 20 21  2  0
 21 22  1  0
 22 23  2  0
  7  2  1  0
 23  8  1  0
 16 10  1  0
 23 18  1  0
M  END
>  <pIC50>  (139) 
7.05

>  <ChEMBL_ID>  (139) 
CHEMBL42

>  <document_journal>  (139) 
None

>  <bao_endpoint>  (139) 
BAO_0000190

>  <potential_duplicate>  (139) 
False

>  <uo_units>  (139) 
UO_0000065

>  <canonical_smiles>  (139) 
CN1CCN(CC1)C2=Nc3cc(Cl)ccc3Nc4ccccc24

>  <parent_molecule_chembl_id>  (139) 
CHEMBL42

>  <assay_type>  (139) 
B

>  <src_id>  (139) 
15

>  <ligand_efficiency>  (139) 
{u'le': u'0.42', u'bei': u'21.56', u'sei': u'22.82', u'lle': u'3.63'}

>  <standard_flag>  (139) 
True

>  <molecule_chembl_id>  (139) 
CHEMBL42

>  <target_organism>  (139) 
Homo sapiens

>  <standard_units>  (139) 
nM

>  <record_id>  (139) 
1539647

>  <document_chembl_id>  (139) 
CHEMBL1909046

>  <bao_format>  (139) 
BAO_0000249

>  <data_validity_description>  (139) 
None

>  <activity_id>  (139) 
7704041

>  <standard_type>  (139) 
IC50

>  <target_chembl_id>  (139) 
CHEMBL1867

>  <data_validity_comment>  (139) 
None

>  <published_value>  (139) 
0.09

>  <document_year>  (139) 
None

>  <target_pref_name>  (139) 
Alpha-2a adrenergic receptor

>  <assay_chembl_id>  (139) 
CHEMBL1909088

>  <standard_relation>  (139) 
=

>  <assay_description>  (139) 
DRUGMATRIX: Alpha-2A adrenergic receptor radioligand binding (ligand: MK-912)

>  <published_relation>  (139) 
=

>  <standard_value>  (139) 
90

>  <qudt_units>  (139) 
http://www.openphacts.org/units/Nanomolar

>  <target_tax_id>  (139) 
9606

>  <bao_label>  (139) 
cell membrane format

>  <published_units>  (139) 
uM

>  <pchembl_value>  (139) 
7.05

>  <published_type>  (139) 
IC50

>  <activity_comment>  (139) 
None

$$$$

     RDKit          

 21 23  0  0  0  0  0  0  0  0999 V2000
    0.0000    0.0000    0.0000 C   0  0  0  0  0  0  0  0  0  0  0  0
    0.0000    0.0000    0.0000 N   0  0  0  0  0  0  0  0  0  0  0  0
    0.0000    0.0000    0.0000 C   0  0  0  0  0  0  0  0  0  0  0  0
    0.0000    0.0000    0.0000 C   0  0  0  0  0  0  0  0  0  0  0  0
    0.0000    0.0000    0.0000 C   0  0  0  0  0  0  0  0  0  0  0  0
    0.0000    0.0000    0.0000 C   0  0  0  0  0  0  0  0  0  0  0  0
    0.0000    0.0000    0.0000 N   0  0  0  0  0  0  0  0  0  0  0  0
    0.0000    0.0000    0.0000 C   0  0  0  0  0  0  0  0  0  0  0  0
    0.0000    0.0000    0.0000 C   0  0  0  0  0  0  0  0  0  0  0  0
    0.0000    0.0000    0.0000 C   0  0  0  0  0  0  0  0  0  0  0  0
    0.0000    0.0000    0.0000 C   0  0  0  0  0  0  0  0  0  0  0  0
    0.0000    0.0000    0.0000 C   0  0  0  0  0  0  0  0  0  0  0  0
    0.0000    0.0000    0.0000 C   0  0  0  0  0  0  0  0  0  0  0  0
    0.0000    0.0000    0.0000 S   0  0  0  0  0  0  0  0  0  0  0  0
    0.0000    0.0000    0.0000 C   0  0  0  0  0  0  0  0  0  0  0  0
    0.0000    0.0000    0.0000 C   0  0  0  0  0  0  0  0  0  0  0  0
    0.0000    0.0000    0.0000 C   0  0  0  0  0  0  0  0  0  0  0  0
    0.0000    0.0000    0.0000 C   0  0  0  0  0  0  0  0  0  0  0  0
    0.0000    0.0000    0.0000 Cl  0  0  0  0  0  0  0  0  0  0  0  0
    0.0000    0.0000    0.0000 C   0  0  0  0  0  0  0  0  0  0  0  0
    0.0000    0.0000    0.0000 C   0  0  0  0  0  0  0  0  0  0  0  0
  1  2  1  0
  2  3  1  0
  2  4  1  0
  4  5  1  0
  5  6  1  0
  6  7  1  0
  7  8  1  0
  8  9  2  0
  9 10  1  0
 10 11  2  0
 11 12  1  0
 12 13  2  0
 13 14  1  0
 14 15  1  0
 15 16  2  0
 16 17  1  0
 17 18  2  0
 18 19  1  0
 18 20  1  0
 20 21  2  0
 21  7  1  0
 13  8  1  0
 21 15  1  0
M  END
>  <pIC50>  (140) 
6.45

>  <ChEMBL_ID>  (140) 
CHEMBL71

>  <document_journal>  (140) 
None

>  <bao_endpoint>  (140) 
BAO_0000190

>  <potential_duplicate>  (140) 
False

>  <uo_units>  (140) 
UO_0000065

>  <canonical_smiles>  (140) 
CN(C)CCCN1c2ccccc2Sc3ccc(Cl)cc13

>  <parent_molecule_chembl_id>  (140) 
CHEMBL71

>  <assay_type>  (140) 
B

>  <src_id>  (140) 
15

>  <ligand_efficiency>  (140) 
{u'le': u'0.42', u'bei': u'20.24', u'sei': u'20.31', u'lle': u'1.71'}

>  <standard_flag>  (140) 
True

>  <molecule_chembl_id>  (140) 
CHEMBL71

>  <target_organism>  (140) 
Homo sapiens

>  <standard_units>  (140) 
nM

>  <record_id>  (140) 
1539606

>  <document_chembl_id>  (140) 
CHEMBL1909046

>  <bao_format>  (140) 
BAO_0000249

>  <data_validity_description>  (140) 
None

>  <activity_id>  (140) 
7705580

>  <standard_type>  (140) 
IC50

>  <target_chembl_id>  (140) 
CHEMBL1867

>  <data_validity_comment>  (140) 
None

>  <published_value>  (140) 
0.352

>  <document_year>  (140) 
None

>  <target_pref_name>  (140) 
Alpha-2a adrenergic receptor

>  <assay_chembl_id>  (140) 
CHEMBL1909088

>  <standard_relation>  (140) 
=

>  <assay_description>  (140) 
DRUGMATRIX: Alpha-2A adrenergic receptor radioligand binding (ligand: MK-912)

>  <published_relation>  (140) 
=

>  <standard_value>  (140) 
352

>  <qudt_units>  (140) 
http://www.openphacts.org/units/Nanomolar

>  <target_tax_id>  (140) 
9606

>  <bao_label>  (140) 
cell membrane format

>  <published_units>  (140) 
uM

>  <pchembl_value>  (140) 
6.45

>  <published_type>  (140) 
IC50

>  <activity_comment>  (140) 
None

$$$$

     RDKit          

 28 31  0  0  0  0  0  0  0  0999 V2000
    0.0000    0.0000    0.0000 C   0  0  0  0  0  0  0  0  0  0  0  0
    0.0000    0.0000    0.0000 C   0  0  0  0  0  0  0  0  0  0  0  0
    0.0000    0.0000    0.0000 C   0  0  0  0  0  0  0  0  0  0  0  0
    0.0000    0.0000    0.0000 C   0  0  0  0  0  0  0  0  0  0  0  0
    0.0000    0.0000    0.0000 C   0  0  0  0  0  0  0  0  0  0  0  0
    0.0000    0.0000    0.0000 C   0  0  0  0  0  0  0  0  0  0  0  0
    0.0000    0.0000    0.0000 C   0  0  0  0  0  0  0  0  0  0  0  0
    0.0000    0.0000    0.0000 C   0  0  0  0  0  0  0  0  0  0  0  0
    0.0000    0.0000    0.0000 C   0  0  0  0  0  0  0  0  0  0  0  0
    0.0000    0.0000    0.0000 N   0  0  0  0  0  0  0  0  0  0  0  0
    0.0000    0.0000    0.0000 C   0  0  0  0  0  0  0  0  0  0  0  0
    0.0000    0.0000    0.0000 C   0  0  0  0  0  0  0  0  0  0  0  0
    0.0000    0.0000    0.0000 N   0  0  0  0  0  0  0  0  0  0  0  0
    0.0000    0.0000    0.0000 C   0  0  0  0  0  0  0  0  0  0  0  0
    0.0000    0.0000    0.0000 C   0  0  0  0  0  0  0  0  0  0  0  0
    0.0000    0.0000    0.0000 C   0  0  0  0  0  0  0  0  0  0  0  0
    0.0000    0.0000    0.0000 C   0  0  0  0  0  0  0  0  0  0  0  0
    0.0000    0.0000    0.0000 C   0  0  0  0  0  0  0  0  0  0  0  0
    0.0000    0.0000    0.0000 C   0  0  0  0  0  0  0  0  0  0  0  0
    0.0000    0.0000    0.0000 C   0  0  0  0  0  0  0  0  0  0  0  0
    0.0000    0.0000    0.0000 C   0  0  0  0  0  0  0  0  0  0  0  0
    0.0000    0.0000    0.0000 C   0  0  0  0  0  0  0  0  0  0  0  0
    0.0000    0.0000    0.0000 C   0  0  0  0  0  0  0  0  0  0  0  0
    0.0000    0.0000    0.0000 C   0  0  0  0  0  0  0  0  0  0  0  0
    0.0000    0.0000    0.0000 C   0  0  0  0  0  0  0  0  0  0  0  0
    0.0000    0.0000    0.0000 C   0  0  0  0  0  0  0  0  0  0  0  0
    0.0000    0.0000    0.0000 C   0  0  0  0  0  0  0  0  0  0  0  0
    0.0000    0.0000    0.0000 C   0  0  0  0  0  0  0  0  0  0  0  0
  1  2  1  0
  2  3  2  0
  3  4  1  0
  4  5  2  0
  5  6  1  0
  6  7  2  0
  7  8  1  0
  8  9  2  0
  1 10  1  0
 10 11  1  0
 11 12  1  0
 12 13  1  0
 13 14  1  0
 14 15  1  0
 13 16  1  0
 16 17  1  0
 17 18  2  0
 18 19  1  0
 19 20  2  0
 20 21  1  0
 21 22  2  0
 16 23  1  0
 23 24  2  0
 24 25  1  0
 25 26  2  0
 26 27  1  0
 27 28  2  0
  9  4  1  0
 15 10  1  0
 22 17  1  0
 28 23  1  0
M  END
>  <pIC50>  (141) 
6.35

>  <ChEMBL_ID>  (141) 
CHEMBL43064

>  <document_journal>  (141) 
None

>  <bao_endpoint>  (141) 
BAO_0000190

>  <potential_duplicate>  (141) 
False

>  <uo_units>  (141) 
UO_0000065

>  <canonical_smiles>  (141) 
C(\C=C\c1ccccc1)N2CCN(CC2)C(c3ccccc3)c4ccccc4

>  <parent_molecule_chembl_id>  (141) 
CHEMBL43064

>  <assay_type>  (141) 
B

>  <src_id>  (141) 
15

>  <ligand_efficiency>  (141) 
{u'le': u'0.31', u'bei': u'17.24', u'sei': u'98.03', u'lle': u'0.83'}

>  <standard_flag>  (141) 
True

>  <molecule_chembl_id>  (141) 
CHEMBL43064

>  <target_organism>  (141) 
Homo sapiens

>  <standard_units>  (141) 
nM

>  <record_id>  (141) 
1539622

>  <document_chembl_id>  (141) 
CHEMBL1909046

>  <bao_format>  (141) 
BAO_0000249

>  <data_validity_description>  (141) 
None

>  <activity_id>  (141) 
7705794

>  <standard_type>  (141) 
IC50

>  <target_chembl_id>  (141) 
CHEMBL1867

>  <data_validity_comment>  (141) 
None

>  <published_value>  (141) 
0.444

>  <document_year>  (141) 
None

>  <target_pref_name>  (141) 
Alpha-2a adrenergic receptor

>  <assay_chembl_id>  (141) 
CHEMBL1909088

>  <standard_relation>  (141) 
=

>  <assay_description>  (141) 
DRUGMATRIX: Alpha-2A adrenergic receptor radioligand binding (ligand: MK-912)

>  <published_relation>  (141) 
=

>  <standard_value>  (141) 
444

>  <qudt_units>  (141) 
http://www.openphacts.org/units/Nanomolar

>  <target_tax_id>  (141) 
9606

>  <bao_label>  (141) 
cell membrane format

>  <published_units>  (141) 
uM

>  <pchembl_value>  (141) 
6.35

>  <published_type>  (141) 
IC50

>  <activity_comment>  (141) 
None

$$$$

     RDKit          

 30 34  0  0  0  0  0  0  0  0999 V2000
    0.0000    0.0000    0.0000 Cl  0  0  0  0  0  0  0  0  0  0  0  0
    0.0000    0.0000    0.0000 C   0  0  0  0  0  0  0  0  0  0  0  0
    0.0000    0.0000    0.0000 C   0  0  0  0  0  0  0  0  0  0  0  0
    0.0000    0.0000    0.0000 C   0  0  0  0  0  0  0  0  0  0  0  0
    0.0000    0.0000    0.0000 C   0  0  0  0  0  0  0  0  0  0  0  0
    0.0000    0.0000    0.0000 N   0  0  0  0  0  0  0  0  0  0  0  0
    0.0000    0.0000    0.0000 C   0  0  0  0  0  0  0  0  0  0  0  0
    0.0000    0.0000    0.0000 C   0  0  0  0  0  0  0  0  0  0  0  0
    0.0000    0.0000    0.0000 C   0  0  0  0  0  0  0  0  0  0  0  0
    0.0000    0.0000    0.0000 N   0  0  0  0  0  0  0  0  0  0  0  0
    0.0000    0.0000    0.0000 C   0  0  0  0  0  0  0  0  0  0  0  0
    0.0000    0.0000    0.0000 C   0  0  0  0  0  0  0  0  0  0  0  0
    0.0000    0.0000    0.0000 C   0  0  0  0  0  0  0  0  0  0  0  0
    0.0000    0.0000    0.0000 N   0  0  0  0  0  0  0  0  0  0  0  0
    0.0000    0.0000    0.0000 C   0  0  0  0  0  0  0  0  0  0  0  0
    0.0000    0.0000    0.0000 O   0  0  0  0  0  0  0  0  0  0  0  0
    0.0000    0.0000    0.0000 N   0  0  0  0  0  0  0  0  0  0  0  0
    0.0000    0.0000    0.0000 C   0  0  0  0  0  0  0  0  0  0  0  0
    0.0000    0.0000    0.0000 C   0  0  0  0  0  0  0  0  0  0  0  0
    0.0000    0.0000    0.0000 C   0  0  0  0  0  0  0  0  0  0  0  0
    0.0000    0.0000    0.0000 C   0  0  0  0  0  0  0  0  0  0  0  0
    0.0000    0.0000    0.0000 C   0  0  0  0  0  0  0  0  0  0  0  0
    0.0000    0.0000    0.0000 C   0  0  0  0  0  0  0  0  0  0  0  0
    0.0000    0.0000    0.0000 C   0  0  0  0  0  0  0  0  0  0  0  0
    0.0000    0.0000    0.0000 C   0  0  0  0  0  0  0  0  0  0  0  0
    0.0000    0.0000    0.0000 C   0  0  0  0  0  0  0  0  0  0  0  0
    0.0000    0.0000    0.0000 O   0  0  0  0  0  0  0  0  0  0  0  0
    0.0000    0.0000    0.0000 N   0  0  0  0  0  0  0  0  0  0  0  0
    0.0000    0.0000    0.0000 C   0  0  0  0  0  0  0  0  0  0  0  0
    0.0000    0.0000    0.0000 C   0  0  0  0  0  0  0  0  0  0  0  0
  1  2  1  0
  2  3  2  0
  3  4  1  0
  4  5  2  0
  5  6  1  0
  6  7  1  0
  7  8  1  0
  8  9  1  0
  9 10  1  0
 10 11  1  0
 11 12  1  0
 12 13  1  0
 13 14  1  0
 14 15  1  0
 15 16  2  0
 15 17  1  0
 17 18  1  0
 18 19  2  0
 19 20  1  0
 20 21  2  0
 21 22  1  0
 22 23  2  0
 10 24  1  0
 24 25  1  0
  6 26  1  0
 26 27  2  0
 26 28  1  0
 28 29  1  0
 29 30  2  0
 30  2  1  0
 29  5  1  0
 25  7  1  0
 23 14  1  0
 23 18  1  0
M  END
>  <pIC50>  (142) 
5.56

>  <ChEMBL_ID>  (142) 
CHEMBL219916

>  <document_journal>  (142) 
None

>  <bao_endpoint>  (142) 
BAO_0000190

>  <potential_duplicate>  (142) 
False

>  <uo_units>  (142) 
UO_0000065

>  <canonical_smiles>  (142) 
Clc1ccc2N(C3CCN(CCCN4C(=O)Nc5ccccc45)CC3)C(=O)Nc2c1

>  <parent_molecule_chembl_id>  (142) 
CHEMBL219916

>  <assay_type>  (142) 
B

>  <src_id>  (142) 
15

>  <ligand_efficiency>  (142) 
{u'le': u'0.25', u'bei': u'13.06', u'sei': u'8.19', u'lle': u'3.11'}

>  <standard_flag>  (142) 
True

>  <molecule_chembl_id>  (142) 
CHEMBL219916

>  <target_organism>  (142) 
Homo sapiens

>  <standard_units>  (142) 
nM

>  <record_id>  (142) 
1539713

>  <document_chembl_id>  (142) 
CHEMBL1909046

>  <bao_format>  (142) 
BAO_0000249

>  <data_validity_description>  (142) 
None

>  <activity_id>  (142) 
7707340

>  <standard_type>  (142) 
IC50

>  <target_chembl_id>  (142) 
CHEMBL1867

>  <data_validity_comment>  (142) 
None

>  <published_value>  (142) 
2.74

>  <document_year>  (142) 
None

>  <target_pref_name>  (142) 
Alpha-2a adrenergic receptor

>  <assay_chembl_id>  (142) 
CHEMBL1909088

>  <standard_relation>  (142) 
=

>  <assay_description>  (142) 
DRUGMATRIX: Alpha-2A adrenergic receptor radioligand binding (ligand: MK-912)

>  <published_relation>  (142) 
=

>  <standard_value>  (142) 
2740

>  <qudt_units>  (142) 
http://www.openphacts.org/units/Nanomolar

>  <target_tax_id>  (142) 
9606

>  <bao_label>  (142) 
cell membrane format

>  <published_units>  (142) 
uM

>  <pchembl_value>  (142) 
5.56

>  <published_type>  (142) 
IC50

>  <activity_comment>  (142) 
None

$$$$

     RDKit          

 22 24  0  0  0  0  0  0  0  0999 V2000
    0.0000    0.0000    0.0000 C   0  0  0  0  0  0  0  0  0  0  0  0
    0.0000    0.0000    0.0000 N   0  0  0  0  0  0  0  0  0  0  0  0
    0.0000    0.0000    0.0000 C   0  0  0  0  0  0  0  0  0  0  0  0
    0.0000    0.0000    0.0000 C   0  0  0  0  0  0  0  0  0  0  0  0
    0.0000    0.0000    0.0000 C   0  0  0  0  0  0  0  0  0  0  0  0
    0.0000    0.0000    0.0000 C   0  0  0  0  0  0  0  0  0  0  0  0
    0.0000    0.0000    0.0000 N   0  0  0  0  0  0  0  0  0  0  0  0
    0.0000    0.0000    0.0000 C   0  0  0  0  0  0  0  0  0  0  0  0
    0.0000    0.0000    0.0000 C   0  0  0  0  0  0  0  0  0  0  0  0
    0.0000    0.0000    0.0000 C   0  0  0  0  0  0  0  0  0  0  0  0
    0.0000    0.0000    0.0000 C   0  0  0  0  0  0  0  0  0  0  0  0
    0.0000    0.0000    0.0000 C   0  0  0  0  0  0  0  0  0  0  0  0
    0.0000    0.0000    0.0000 C   0  0  0  0  0  0  0  0  0  0  0  0
    0.0000    0.0000    0.0000 C   0  0  0  0  0  0  0  0  0  0  0  0
    0.0000    0.0000    0.0000 C   0  0  0  0  0  0  0  0  0  0  0  0
    0.0000    0.0000    0.0000 C   0  0  0  0  0  0  0  0  0  0  0  0
    0.0000    0.0000    0.0000 C   0  0  0  0  0  0  0  0  0  0  0  0
    0.0000    0.0000    0.0000 C   0  0  0  0  0  0  0  0  0  0  0  0
    0.0000    0.0000    0.0000 C   0  0  0  0  0  0  0  0  0  0  0  0
    0.0000    0.0000    0.0000 Cl  0  0  0  0  0  0  0  0  0  0  0  0
    0.0000    0.0000    0.0000 C   0  0  0  0  0  0  0  0  0  0  0  0
    0.0000    0.0000    0.0000 C   0  0  0  0  0  0  0  0  0  0  0  0
  1  2  1  0
  2  3  1  0
  2  4  1  0
  4  5  1  0
  5  6  1  0
  6  7  1  0
  7  8  1  0
  8  9  2  0
  9 10  1  0
 10 11  2  0
 11 12  1  0
 12 13  2  0
 13 14  1  0
 14 15  1  0
 15 16  1  0
 16 17  2  0
 17 18  1  0
 18 19  2  0
 19 20  1  0
 19 21  1  0
 21 22  2  0
 22  7  1  0
 13  8  1  0
 22 16  1  0
M  END
>  <pIC50>  (143) 
5.85

>  <ChEMBL_ID>  (143) 
CHEMBL415

>  <document_journal>  (143) 
None

>  <bao_endpoint>  (143) 
BAO_0000190

>  <potential_duplicate>  (143) 
False

>  <uo_units>  (143) 
UO_0000065

>  <canonical_smiles>  (143) 
CN(C)CCCN1c2ccccc2CCc3ccc(Cl)cc13

>  <parent_molecule_chembl_id>  (143) 
CHEMBL415

>  <assay_type>  (143) 
B

>  <src_id>  (143) 
15

>  <ligand_efficiency>  (143) 
{u'le': u'0.36', u'bei': u'18.58', u'sei': u'90.27', u'lle': u'0.8'}

>  <standard_flag>  (143) 
True

>  <molecule_chembl_id>  (143) 
CHEMBL415

>  <target_organism>  (143) 
Homo sapiens

>  <standard_units>  (143) 
nM

>  <record_id>  (143) 
1539639

>  <document_chembl_id>  (143) 
CHEMBL1909046

>  <bao_format>  (143) 
BAO_0000249

>  <data_validity_description>  (143) 
None

>  <activity_id>  (143) 
7708274

>  <standard_type>  (143) 
IC50

>  <target_chembl_id>  (143) 
CHEMBL1867

>  <data_validity_comment>  (143) 
None

>  <published_value>  (143) 
1.414

>  <document_year>  (143) 
None

>  <target_pref_name>  (143) 
Alpha-2a adrenergic receptor

>  <assay_chembl_id>  (143) 
CHEMBL1909088

>  <standard_relation>  (143) 
=

>  <assay_description>  (143) 
DRUGMATRIX: Alpha-2A adrenergic receptor radioligand binding (ligand: MK-912)

>  <published_relation>  (143) 
=

>  <standard_value>  (143) 
1414

>  <qudt_units>  (143) 
http://www.openphacts.org/units/Nanomolar

>  <target_tax_id>  (143) 
9606

>  <bao_label>  (143) 
cell membrane format

>  <published_units>  (143) 
uM

>  <pchembl_value>  (143) 
5.85

>  <published_type>  (143) 
IC50

>  <activity_comment>  (143) 
None

$$$$

     RDKit          

 22 25  0  0  0  0  0  0  0  0999 V2000
    0.0000    0.0000    0.0000 C   0  0  0  0  0  0  0  0  0  0  0  0
    0.0000    0.0000    0.0000 N   0  0  0  0  0  0  0  0  0  0  0  0
    0.0000    0.0000    0.0000 C   0  0  0  0  0  0  0  0  0  0  0  0
    0.0000    0.0000    0.0000 C   0  0  0  0  0  0  0  0  0  0  0  0
    0.0000    0.0000    0.0000 C   0  0  0  0  0  0  0  0  0  0  0  0
    0.0000    0.0000    0.0000 C   0  0  0  0  0  0  0  0  0  0  0  0
    0.0000    0.0000    0.0000 C   0  0  0  0  0  0  0  0  0  0  0  0
    0.0000    0.0000    0.0000 C   0  0  0  0  0  0  0  0  0  0  0  0
    0.0000    0.0000    0.0000 C   0  0  0  0  0  0  0  0  0  0  0  0
    0.0000    0.0000    0.0000 C   0  0  0  0  0  0  0  0  0  0  0  0
    0.0000    0.0000    0.0000 C   0  0  0  0  0  0  0  0  0  0  0  0
    0.0000    0.0000    0.0000 C   0  0  0  0  0  0  0  0  0  0  0  0
    0.0000    0.0000    0.0000 C   0  0  0  0  0  0  0  0  0  0  0  0
    0.0000    0.0000    0.0000 C   0  0  0  0  0  0  0  0  0  0  0  0
    0.0000    0.0000    0.0000 C   0  0  0  0  0  0  0  0  0  0  0  0
    0.0000    0.0000    0.0000 C   0  0  0  0  0  0  0  0  0  0  0  0
    0.0000    0.0000    0.0000 C   0  0  0  0  0  0  0  0  0  0  0  0
    0.0000    0.0000    0.0000 C   0  0  0  0  0  0  0  0  0  0  0  0
    0.0000    0.0000    0.0000 C   0  0  0  0  0  0  0  0  0  0  0  0
    0.0000    0.0000    0.0000 C   0  0  0  0  0  0  0  0  0  0  0  0
    0.0000    0.0000    0.0000 C   0  0  0  0  0  0  0  0  0  0  0  0
    0.0000    0.0000    0.0000 C   0  0  0  0  0  0  0  0  0  0  0  0
  1  2  1  0
  2  3  1  0
  3  4  1  0
  4  5  1  0
  5  6  2  3
  6  7  1  0
  7  8  2  0
  8  9  1  0
  9 10  2  0
 10 11  1  0
 11 12  2  0
 12 13  1  0
 13 14  2  0
 14 15  1  0
 15 16  2  0
 16 17  1  0
 17 18  2  0
 18 19  1  0
 19 20  2  0
  5 21  1  0
 21 22  1  0
 22  2  1  0
 20  6  1  0
 12  7  1  0
 20 15  1  0
M  END
>  <pIC50>  (144) 
6.55

>  <ChEMBL_ID>  (144) 
CHEMBL516

>  <document_journal>  (144) 
None

>  <bao_endpoint>  (144) 
BAO_0000190

>  <potential_duplicate>  (144) 
False

>  <uo_units>  (144) 
UO_0000065

>  <canonical_smiles>  (144) 
CN1CCC(=C2c3ccccc3C=Cc4ccccc24)CC1

>  <parent_molecule_chembl_id>  (144) 
CHEMBL516

>  <assay_type>  (144) 
B

>  <src_id>  (144) 
15

>  <ligand_efficiency>  (144) 
{u'le': u'0.41', u'bei': u'22.78', u'sei': u'202.11', u'lle': u'2.19'}

>  <standard_flag>  (144) 
True

>  <molecule_chembl_id>  (144) 
CHEMBL516

>  <target_organism>  (144) 
Homo sapiens

>  <standard_units>  (144) 
nM

>  <record_id>  (144) 
1539664

>  <document_chembl_id>  (144) 
CHEMBL1909046

>  <bao_format>  (144) 
BAO_0000249

>  <data_validity_description>  (144) 
None

>  <activity_id>  (144) 
7708662

>  <standard_type>  (144) 
IC50

>  <target_chembl_id>  (144) 
CHEMBL1867

>  <data_validity_comment>  (144) 
None

>  <published_value>  (144) 
0.283

>  <document_year>  (144) 
None

>  <target_pref_name>  (144) 
Alpha-2a adrenergic receptor

>  <assay_chembl_id>  (144) 
CHEMBL1909088

>  <standard_relation>  (144) 
=

>  <assay_description>  (144) 
DRUGMATRIX: Alpha-2A adrenergic receptor radioligand binding (ligand: MK-912)

>  <published_relation>  (144) 
=

>  <standard_value>  (144) 
283

>  <qudt_units>  (144) 
http://www.openphacts.org/units/Nanomolar

>  <target_tax_id>  (144) 
9606

>  <bao_label>  (144) 
cell membrane format

>  <published_units>  (144) 
uM

>  <pchembl_value>  (144) 
6.55

>  <published_type>  (144) 
IC50

>  <activity_comment>  (144) 
None

$$$$

     RDKit          

 25 29  0  0  0  0  0  0  0  0999 V2000
    0.0000    0.0000    0.0000 C   0  0  0  0  0  0  0  0  0  0  0  0
    0.0000    0.0000    0.0000 C   0  0  0  0  0  0  0  0  0  0  0  0
    0.0000    0.0000    0.0000 C   0  0  0  0  0  0  0  0  0  0  0  0
    0.0000    0.0000    0.0000 C   0  0  0  0  0  0  0  0  0  0  0  0
    0.0000    0.0000    0.0000 C   0  0  0  0  0  0  0  0  0  0  0  0
    0.0000    0.0000    0.0000 N   0  0  0  0  0  0  0  0  0  0  0  0
    0.0000    0.0000    0.0000 O   0  0  0  0  0  0  0  0  0  0  0  0
    0.0000    0.0000    0.0000 C   0  0  0  0  0  0  0  0  0  0  0  0
    0.0000    0.0000    0.0000 C   0  0  0  0  0  0  0  0  0  0  0  0
    0.0000    0.0000    0.0000 C   0  0  0  0  0  0  0  0  0  0  0  0
    0.0000    0.0000    0.0000 C   0  0  0  0  0  0  0  0  0  0  0  0
    0.0000    0.0000    0.0000 C   0  0  0  0  0  0  0  0  0  0  0  0
    0.0000    0.0000    0.0000 C   0  0  0  0  0  0  0  0  0  0  0  0
    0.0000    0.0000    0.0000 C   0  0  0  0  0  0  0  0  0  0  0  0
    0.0000    0.0000    0.0000 C   0  0  0  0  0  0  0  0  0  0  0  0
    0.0000    0.0000    0.0000 C   0  0  0  0  0  0  0  0  0  0  0  0
    0.0000    0.0000    0.0000 C   0  0  0  0  0  0  0  0  0  0  0  0
    0.0000    0.0000    0.0000 C   0  0  0  0  0  0  0  0  0  0  0  0
    0.0000    0.0000    0.0000 C   0  0  0  0  0  0  0  0  0  0  0  0
    0.0000    0.0000    0.0000 C   0  0  0  0  0  0  0  0  0  0  0  0
    0.0000    0.0000    0.0000 C   0  0  0  0  0  0  0  0  0  0  0  0
    0.0000    0.0000    0.0000 C   0  0  0  0  0  0  0  0  0  0  0  0
    0.0000    0.0000    0.0000 O   0  0  0  0  0  0  0  0  0  0  0  0
    0.0000    0.0000    0.0000 C   0  0  0  0  0  0  0  0  0  0  0  0
    0.0000    0.0000    0.0000 C   0  0  0  0  0  0  0  0  0  0  0  0
  1  2  1  0
  2  3  1  0
  3  4  1  0
  4  5  1  0
  5  6  2  0
  6  7  1  0
  7  8  1  0
  8  9  1  0
  9 10  2  0
 10 11  1  0
 11 12  1  0
 12 13  1  0
 13 14  1  0
 14 15  1  0
 15 16  1  0
 16 17  1  0
 17 18  1  0
 17 19  1  0
 19 20  1  0
 20 21  1  0
 21 22  1  0
 22 23  1  0
 22 24  1  0
 24 25  3  0
 10  2  1  0
 14  2  1  0
  8  4  2  0
 19 13  1  0
 22 17  1  0
M  END
>  <pIC50>  (145) 
4.74

>  <ChEMBL_ID>  (145) 
CHEMBL1479

>  <document_journal>  (145) 
None

>  <bao_endpoint>  (145) 
BAO_0000190

>  <potential_duplicate>  (145) 
False

>  <uo_units>  (145) 
UO_0000065

>  <canonical_smiles>  (145) 
C[C@]12Cc3cnoc3C=C1CC[C@@H]4[C@@H]2CC[C@@]5(C)[C@H]4CC[C@@]5(O)C#C

>  <parent_molecule_chembl_id>  (145) 
CHEMBL1479

>  <assay_type>  (145) 
B

>  <src_id>  (145) 
15

>  <ligand_efficiency>  (145) 
{u'le': u'0.26', u'bei': u'14.04', u'sei': u'10.24', u'lle': u'-0.13'}

>  <standard_flag>  (145) 
True

>  <molecule_chembl_id>  (145) 
CHEMBL1479

>  <target_organism>  (145) 
Homo sapiens

>  <standard_units>  (145) 
nM

>  <record_id>  (145) 
1539672

>  <document_chembl_id>  (145) 
CHEMBL1909046

>  <bao_format>  (145) 
BAO_0000249

>  <data_validity_description>  (145) 
None

>  <activity_id>  (145) 
7708785

>  <standard_type>  (145) 
IC50

>  <target_chembl_id>  (145) 
CHEMBL1867

>  <data_validity_comment>  (145) 
None

>  <published_value>  (145) 
18.328

>  <document_year>  (145) 
None

>  <target_pref_name>  (145) 
Alpha-2a adrenergic receptor

>  <assay_chembl_id>  (145) 
CHEMBL1909088

>  <standard_relation>  (145) 
=

>  <assay_description>  (145) 
DRUGMATRIX: Alpha-2A adrenergic receptor radioligand binding (ligand: MK-912)

>  <published_relation>  (145) 
=

>  <standard_value>  (145) 
18328

>  <qudt_units>  (145) 
http://www.openphacts.org/units/Nanomolar

>  <target_tax_id>  (145) 
9606

>  <bao_label>  (145) 
cell membrane format

>  <published_units>  (145) 
uM

>  <pchembl_value>  (145) 
4.74

>  <published_type>  (145) 
IC50

>  <activity_comment>  (145) 
None

$$$$

     RDKit          

 19 20  0  0  0  0  0  0  0  0999 V2000
    0.0000    0.0000    0.0000 C   0  0  0  0  0  0  0  0  0  0  0  0
    0.0000    0.0000    0.0000 N   0  0  0  0  0  0  0  0  0  0  0  0
    0.0000    0.0000    0.0000 C   0  0  0  0  0  0  0  0  0  0  0  0
    0.0000    0.0000    0.0000 C   0  0  0  0  0  0  0  0  0  0  0  0
    0.0000    0.0000    0.0000 C   0  0  0  0  0  0  0  0  0  0  0  0
    0.0000    0.0000    0.0000 C   0  0  0  0  0  0  0  0  0  0  0  0
    0.0000    0.0000    0.0000 C   0  0  0  0  0  0  0  0  0  0  0  0
    0.0000    0.0000    0.0000 C   0  0  0  0  0  0  0  0  0  0  0  0
    0.0000    0.0000    0.0000 C   0  0  0  0  0  0  0  0  0  0  0  0
    0.0000    0.0000    0.0000 C   0  0  0  0  0  0  0  0  0  0  0  0
    0.0000    0.0000    0.0000 Cl  0  0  0  0  0  0  0  0  0  0  0  0
    0.0000    0.0000    0.0000 C   0  0  0  0  0  0  0  0  0  0  0  0
    0.0000    0.0000    0.0000 C   0  0  0  0  0  0  0  0  0  0  0  0
    0.0000    0.0000    0.0000 C   0  0  0  0  0  0  0  0  0  0  0  0
    0.0000    0.0000    0.0000 C   0  0  0  0  0  0  0  0  0  0  0  0
    0.0000    0.0000    0.0000 C   0  0  0  0  0  0  0  0  0  0  0  0
    0.0000    0.0000    0.0000 C   0  0  0  0  0  0  0  0  0  0  0  0
    0.0000    0.0000    0.0000 C   0  0  0  0  0  0  0  0  0  0  0  0
    0.0000    0.0000    0.0000 N   0  0  0  0  0  0  0  0  0  0  0  0
  1  2  1  0
  2  3  1  0
  2  4  1  0
  4  5  1  0
  5  6  1  0
  6  7  1  0
  7  8  2  0
  8  9  1  0
  9 10  2  0
 10 11  1  0
 10 12  1  0
 12 13  2  0
  6 14  1  0
 14 15  2  0
 15 16  1  0
 16 17  2  0
 17 18  1  0
 18 19  2  0
 13  7  1  0
 19 14  1  0
M  END
>  <pIC50>  (146) 
4.69

>  <ChEMBL_ID>  (146) 
CHEMBL1201353

>  <document_journal>  (146) 
None

>  <bao_endpoint>  (146) 
BAO_0000190

>  <potential_duplicate>  (146) 
False

>  <uo_units>  (146) 
UO_0000065

>  <canonical_smiles>  (146) 
CN(C)CC[C@@H](c1ccc(Cl)cc1)c2ccccn2

>  <parent_molecule_chembl_id>  (146) 
CHEMBL1201353

>  <assay_type>  (146) 
B

>  <src_id>  (146) 
15

>  <ligand_efficiency>  (146) 
{u'le': u'0.34', u'bei': u'17.07', u'sei': u'29.09', u'lle': u'0.99'}

>  <standard_flag>  (146) 
True

>  <molecule_chembl_id>  (146) 
CHEMBL1201353

>  <target_organism>  (146) 
Homo sapiens

>  <standard_units>  (146) 
nM

>  <record_id>  (146) 
1539681

>  <document_chembl_id>  (146) 
CHEMBL1909046

>  <bao_format>  (146) 
BAO_0000249

>  <data_validity_description>  (146) 
None

>  <activity_id>  (146) 
7711193

>  <standard_type>  (146) 
IC50

>  <target_chembl_id>  (146) 
CHEMBL1867

>  <data_validity_comment>  (146) 
None

>  <published_value>  (146) 
20.333

>  <document_year>  (146) 
None

>  <target_pref_name>  (146) 
Alpha-2a adrenergic receptor

>  <assay_chembl_id>  (146) 
CHEMBL1909088

>  <standard_relation>  (146) 
=

>  <assay_description>  (146) 
DRUGMATRIX: Alpha-2A adrenergic receptor radioligand binding (ligand: MK-912)

>  <published_relation>  (146) 
=

>  <standard_value>  (146) 
20333

>  <qudt_units>  (146) 
http://www.openphacts.org/units/Nanomolar

>  <target_tax_id>  (146) 
9606

>  <bao_label>  (146) 
cell membrane format

>  <published_units>  (146) 
uM

>  <pchembl_value>  (146) 
4.69

>  <published_type>  (146) 
IC50

>  <activity_comment>  (146) 
None

$$$$

     RDKit          

 30 33  0  0  0  0  0  0  0  0999 V2000
    0.0000    0.0000    0.0000 C   0  0  0  0  0  0  0  0  0  0  0  0
    0.0000    0.0000    0.0000 O   0  0  0  0  0  0  0  0  0  0  0  0
    0.0000    0.0000    0.0000 C   0  0  0  0  0  0  0  0  0  0  0  0
    0.0000    0.0000    0.0000 C   0  0  0  0  0  0  0  0  0  0  0  0
    0.0000    0.0000    0.0000 C   0  0  0  0  0  0  0  0  0  0  0  0
    0.0000    0.0000    0.0000 C   0  0  0  0  0  0  0  0  0  0  0  0
    0.0000    0.0000    0.0000 C   0  0  0  0  0  0  0  0  0  0  0  0
    0.0000    0.0000    0.0000 C   0  0  0  0  0  0  0  0  0  0  0  0
    0.0000    0.0000    0.0000 O   0  0  0  0  0  0  0  0  0  0  0  0
    0.0000    0.0000    0.0000 C   0  0  0  0  0  0  0  0  0  0  0  0
    0.0000    0.0000    0.0000 C   0  0  0  0  0  0  0  0  0  0  0  0
    0.0000    0.0000    0.0000 N   0  0  0  0  0  0  0  0  0  0  0  0
    0.0000    0.0000    0.0000 C   0  0  0  0  0  0  0  0  0  0  0  0
    0.0000    0.0000    0.0000 C   0  0  0  0  0  0  0  0  0  0  0  0
    0.0000    0.0000    0.0000 O   0  0  0  0  0  0  0  0  0  0  0  0
    0.0000    0.0000    0.0000 C   0  0  0  0  0  0  0  0  0  0  0  0
    0.0000    0.0000    0.0000 O   0  0  0  0  0  0  0  0  0  0  0  0
    0.0000    0.0000    0.0000 C   0  0  0  0  0  0  0  0  0  0  0  0
    0.0000    0.0000    0.0000 C   0  0  0  0  0  0  0  0  0  0  0  0
    0.0000    0.0000    0.0000 C   0  0  0  0  0  0  0  0  0  0  0  0
    0.0000    0.0000    0.0000 C   0  0  0  0  0  0  0  0  0  0  0  0
    0.0000    0.0000    0.0000 C   0  0  0  0  0  0  0  0  0  0  0  0
    0.0000    0.0000    0.0000 N   0  0  0  0  0  0  0  0  0  0  0  0
    0.0000    0.0000    0.0000 C   0  0  0  0  0  0  0  0  0  0  0  0
    0.0000    0.0000    0.0000 C   0  0  0  0  0  0  0  0  0  0  0  0
    0.0000    0.0000    0.0000 C   0  0  0  0  0  0  0  0  0  0  0  0
    0.0000    0.0000    0.0000 C   0  0  0  0  0  0  0  0  0  0  0  0
    0.0000    0.0000    0.0000 C   0  0  0  0  0  0  0  0  0  0  0  0
    0.0000    0.0000    0.0000 C   0  0  0  0  0  0  0  0  0  0  0  0
    0.0000    0.0000    0.0000 C   0  0  0  0  0  0  0  0  0  0  0  0
  1  2  1  0
  2  3  1  0
  3  4  2  0
  4  5  1  0
  5  6  2  0
  6  7  1  0
  7  8  2  0
  8  9  1  0
  9 10  1  0
 10 11  1  0
 11 12  1  0
 12 13  1  0
 13 14  1  0
 14 15  1  0
 14 16  1  0
 16 17  1  0
 17 18  1  0
 18 19  2  0
 19 20  1  0
 20 21  2  0
 21 22  1  0
 22 23  1  0
 23 24  1  0
 24 25  2  0
 25 26  1  0
 26 27  2  0
 27 28  1  0
 28 29  2  0
 29 30  1  0
  8  3  1  0
 30 18  1  0
 30 22  2  0
 29 24  1  0
M  END
>  <pIC50>  (147) 
6.98

>  <ChEMBL_ID>  (147) 
CHEMBL723

>  <document_journal>  (147) 
None

>  <bao_endpoint>  (147) 
BAO_0000190

>  <potential_duplicate>  (147) 
False

>  <uo_units>  (147) 
UO_0000065

>  <canonical_smiles>  (147) 
COc1ccccc1OCCNCC(O)COc2cccc3[nH]c4ccccc4c23

>  <parent_molecule_chembl_id>  (147) 
CHEMBL723

>  <assay_type>  (147) 
B

>  <src_id>  (147) 
15

>  <ligand_efficiency>  (147) 
{u'le': u'0.32', u'bei': u'17.16', u'sei': u'9.21', u'lle': u'2.96'}

>  <standard_flag>  (147) 
True

>  <molecule_chembl_id>  (147) 
CHEMBL723

>  <target_organism>  (147) 
Homo sapiens

>  <standard_units>  (147) 
nM

>  <record_id>  (147) 
1539591

>  <document_chembl_id>  (147) 
CHEMBL1909046

>  <bao_format>  (147) 
BAO_0000249

>  <data_validity_description>  (147) 
None

>  <activity_id>  (147) 
7711848

>  <standard_type>  (147) 
IC50

>  <target_chembl_id>  (147) 
CHEMBL1867

>  <data_validity_comment>  (147) 
None

>  <published_value>  (147) 
0.106

>  <document_year>  (147) 
None

>  <target_pref_name>  (147) 
Alpha-2a adrenergic receptor

>  <assay_chembl_id>  (147) 
CHEMBL1909088

>  <standard_relation>  (147) 
=

>  <assay_description>  (147) 
DRUGMATRIX: Alpha-2A adrenergic receptor radioligand binding (ligand: MK-912)

>  <published_relation>  (147) 
=

>  <standard_value>  (147) 
106

>  <qudt_units>  (147) 
http://www.openphacts.org/units/Nanomolar

>  <target_tax_id>  (147) 
9606

>  <bao_label>  (147) 
cell membrane format

>  <published_units>  (147) 
uM

>  <pchembl_value>  (147) 
6.98

>  <published_type>  (147) 
IC50

>  <activity_comment>  (147) 
None

$$$$

     RDKit          

 22 22  0  0  0  0  0  0  0  0999 V2000
    0.0000    0.0000    0.0000 C   0  0  0  0  0  0  0  0  0  0  0  0
    0.0000    0.0000    0.0000 C   0  0  0  0  0  0  0  0  0  0  0  0
    0.0000    0.0000    0.0000 C   0  0  0  0  0  0  0  0  0  0  0  0
    0.0000    0.0000    0.0000 C   0  0  0  0  0  0  0  0  0  0  0  0
    0.0000    0.0000    0.0000 C   0  0  0  0  0  0  0  0  0  0  0  0
    0.0000    0.0000    0.0000 C   0  0  0  0  0  0  0  0  0  0  0  0
    0.0000    0.0000    0.0000 C   0  0  0  0  0  0  0  0  0  0  0  0
    0.0000    0.0000    0.0000 C   0  0  0  0  0  0  0  0  0  0  0  0
    0.0000    0.0000    0.0000 C   0  0  0  0  0  0  0  0  0  0  0  0
    0.0000    0.0000    0.0000 C   0  0  0  0  0  0  0  0  0  0  0  0
    0.0000    0.0000    0.0000 C   0  0  0  0  0  0  0  0  0  0  0  0
    0.0000    0.0000    0.0000 C   0  0  0  0  0  0  0  0  0  0  0  0
    0.0000    0.0000    0.0000 C   0  0  0  0  0  0  0  0  0  0  0  0
    0.0000    0.0000    0.0000 C   0  0  0  0  0  0  0  0  0  0  0  0
    0.0000    0.0000    0.0000 C   0  0  0  0  0  0  0  0  0  0  0  0
    0.0000    0.0000    0.0000 C   0  0  0  0  0  0  0  0  0  0  0  0
    0.0000    0.0000    0.0000 N   0  0  0  0  0  0  0  0  0  0  0  0
    0.0000    0.0000    0.0000 C   0  0  0  0  0  0  0  0  0  0  0  0
    0.0000    0.0000    0.0000 C   0  0  0  0  0  0  0  0  0  0  0  0
    0.0000    0.0000    0.0000 C   0  0  0  0  0  0  0  0  0  0  0  0
    0.0000    0.0000    0.0000 C   0  0  0  0  0  0  0  0  0  0  0  0
    0.0000    0.0000    0.0000 C   0  0  0  0  0  0  0  0  0  0  0  0
  1  2  1  0
  2  3  1  0
  3  4  1  0
  4  5  1  0
  5  6  1  0
  6  7  1  0
  7  8  1  0
  8  9  1  0
  9 10  1  0
 10 11  1  0
 11 12  1  0
 12 13  1  0
 13 14  1  0
 14 15  1  0
 15 16  1  0
 16 17  1  0
 17 18  2  0
 18 19  1  0
 19 20  2  0
 20 21  1  0
 21 22  2  0
 22 17  1  0
M  CHG  1  17   1
M  END
>  <pIC50>  (148) 
6.62

>  <ChEMBL_ID>  (148) 
CHEMBL334255

>  <document_journal>  (148) 
None

>  <bao_endpoint>  (148) 
BAO_0000190

>  <potential_duplicate>  (148) 
False

>  <uo_units>  (148) 
UO_0000065

>  <canonical_smiles>  (148) 
[Br-].CCCCCCCCCCCCCCCC[n+]1ccccc1

>  <parent_molecule_chembl_id>  (148) 
CHEMBL305906

>  <assay_type>  (148) 
B

>  <src_id>  (148) 
15

>  <ligand_efficiency>  (148) 
{u'le': u'0.41', u'bei': u'21.73', u'sei': u'170.52', u'lle': u'-1.62'}

>  <standard_flag>  (148) 
True

>  <molecule_chembl_id>  (148) 
CHEMBL334255

>  <target_organism>  (148) 
Homo sapiens

>  <standard_units>  (148) 
nM

>  <record_id>  (148) 
1539599

>  <document_chembl_id>  (148) 
CHEMBL1909046

>  <bao_format>  (148) 
BAO_0000249

>  <data_validity_description>  (148) 
None

>  <activity_id>  (148) 
7711957

>  <standard_type>  (148) 
IC50

>  <target_chembl_id>  (148) 
CHEMBL1867

>  <data_validity_comment>  (148) 
None

>  <published_value>  (148) 
0.242

>  <document_year>  (148) 
None

>  <target_pref_name>  (148) 
Alpha-2a adrenergic receptor

>  <assay_chembl_id>  (148) 
CHEMBL1909088

>  <standard_relation>  (148) 
=

>  <assay_description>  (148) 
DRUGMATRIX: Alpha-2A adrenergic receptor radioligand binding (ligand: MK-912)

>  <published_relation>  (148) 
=

>  <standard_value>  (148) 
242

>  <qudt_units>  (148) 
http://www.openphacts.org/units/Nanomolar

>  <target_tax_id>  (148) 
9606

>  <bao_label>  (148) 
cell membrane format

>  <published_units>  (148) 
uM

>  <pchembl_value>  (148) 
6.62

>  <published_type>  (148) 
IC50

>  <activity_comment>  (148) 
None

$$$$

     RDKit          

 24 26  0  0  0  0  0  0  0  0999 V2000
    0.0000    0.0000    0.0000 C   0  0  0  0  0  0  0  0  0  0  0  0
    0.0000    0.0000    0.0000 N   0  0  0  0  0  0  0  0  0  0  0  0
    0.0000    0.0000    0.0000 C   0  0  0  0  0  0  0  0  0  0  0  0
    0.0000    0.0000    0.0000 C   0  0  0  0  0  0  0  0  0  0  0  0
    0.0000    0.0000    0.0000 C   0  0  0  0  0  0  0  0  0  0  0  0
    0.0000    0.0000    0.0000 C   0  0  0  0  0  0  0  0  0  0  0  0
    0.0000    0.0000    0.0000 C   0  0  0  0  0  0  0  0  0  0  0  0
    0.0000    0.0000    0.0000 C   0  0  0  0  0  0  0  0  0  0  0  0
    0.0000    0.0000    0.0000 O   0  0  0  0  0  0  0  0  0  0  0  0
    0.0000    0.0000    0.0000 C   0  0  0  0  0  0  0  0  0  0  0  0
    0.0000    0.0000    0.0000 C   0  0  0  0  0  0  0  0  0  0  0  0
    0.0000    0.0000    0.0000 C   0  0  0  0  0  0  0  0  0  0  0  0
    0.0000    0.0000    0.0000 C   0  0  0  0  0  0  0  0  0  0  0  0
    0.0000    0.0000    0.0000 C   0  0  0  0  0  0  0  0  0  0  0  0
    0.0000    0.0000    0.0000 C   0  0  0  0  0  0  0  0  0  0  0  0
    0.0000    0.0000    0.0000 C   0  0  0  0  0  0  0  0  0  0  0  0
    0.0000    0.0000    0.0000 C   0  0  0  0  0  0  0  0  0  0  0  0
    0.0000    0.0000    0.0000 C   0  0  0  0  0  0  0  0  0  0  0  0
    0.0000    0.0000    0.0000 C   0  0  0  0  0  0  0  0  0  0  0  0
    0.0000    0.0000    0.0000 C   0  0  0  0  0  0  0  0  0  0  0  0
    0.0000    0.0000    0.0000 C   0  0  0  0  0  0  0  0  0  0  0  0
    0.0000    0.0000    0.0000 Cl  0  0  0  0  0  0  0  0  0  0  0  0
    0.0000    0.0000    0.0000 C   0  0  0  0  0  0  0  0  0  0  0  0
    0.0000    0.0000    0.0000 C   0  0  0  0  0  0  0  0  0  0  0  0
  1  2  1  0
  2  3  1  0
  3  4  1  0
  4  5  1  0
  5  6  1  0
  6  7  1  0
  7  8  1  0
  8  9  1  0
  9 10  1  0
 10 11  1  0
 10 12  1  0
 12 13  2  0
 13 14  1  0
 14 15  2  0
 15 16  1  0
 16 17  2  0
 10 18  1  0
 18 19  2  0
 19 20  1  0
 20 21  2  0
 21 22  1  0
 21 23  1  0
 23 24  2  0
  6  2  1  0
 17 12  1  0
 24 18  1  0
M  END
>  <pIC50>  (149) 
6.74

>  <ChEMBL_ID>  (149) 
CHEMBL1626

>  <document_journal>  (149) 
None

>  <bao_endpoint>  (149) 
BAO_0000190

>  <potential_duplicate>  (149) 
False

>  <uo_units>  (149) 
UO_0000065

>  <canonical_smiles>  (149) 
CN1CCC[C@@H]1CCO[C@](C)(c2ccccc2)c3ccc(Cl)cc3

>  <parent_molecule_chembl_id>  (149) 
CHEMBL1626

>  <assay_type>  (149) 
B

>  <src_id>  (149) 
15

>  <ligand_efficiency>  (149) 
{u'le': u'0.38', u'bei': u'19.59', u'sei': u'54.03', u'lle': u'1.93'}

>  <standard_flag>  (149) 
True

>  <molecule_chembl_id>  (149) 
CHEMBL1626

>  <target_organism>  (149) 
Homo sapiens

>  <standard_units>  (149) 
nM

>  <record_id>  (149) 
1539632

>  <document_chembl_id>  (149) 
CHEMBL1909046

>  <bao_format>  (149) 
BAO_0000249

>  <data_validity_description>  (149) 
None

>  <activity_id>  (149) 
7712598

>  <standard_type>  (149) 
IC50

>  <target_chembl_id>  (149) 
CHEMBL1867

>  <data_validity_comment>  (149) 
None

>  <published_value>  (149) 
0.183

>  <document_year>  (149) 
None

>  <target_pref_name>  (149) 
Alpha-2a adrenergic receptor

>  <assay_chembl_id>  (149) 
CHEMBL1909088

>  <standard_relation>  (149) 
=

>  <assay_description>  (149) 
DRUGMATRIX: Alpha-2A adrenergic receptor radioligand binding (ligand: MK-912)

>  <published_relation>  (149) 
=

>  <standard_value>  (149) 
183

>  <qudt_units>  (149) 
http://www.openphacts.org/units/Nanomolar

>  <target_tax_id>  (149) 
9606

>  <bao_label>  (149) 
cell membrane format

>  <published_units>  (149) 
uM

>  <pchembl_value>  (149) 
6.74

>  <published_type>  (149) 
IC50

>  <activity_comment>  (149) 
None

$$$$

     RDKit          

 19 20  0  0  0  0  0  0  0  0999 V2000
    0.0000    0.0000    0.0000 C   0  0  0  0  0  0  0  0  0  0  0  0
    0.0000    0.0000    0.0000 C   0  0  0  0  0  0  0  0  0  0  0  0
    0.0000    0.0000    0.0000 C   0  0  0  0  0  0  0  0  0  0  0  0
    0.0000    0.0000    0.0000 C   0  0  0  0  0  0  0  0  0  0  0  0
    0.0000    0.0000    0.0000 C   0  0  0  0  0  0  0  0  0  0  0  0
    0.0000    0.0000    0.0000 O   0  0  0  0  0  0  0  0  0  0  0  0
    0.0000    0.0000    0.0000 C   0  0  0  0  0  0  0  0  0  0  0  0
    0.0000    0.0000    0.0000 C   0  0  0  0  0  0  0  0  0  0  0  0
    0.0000    0.0000    0.0000 C   0  0  0  0  0  0  0  0  0  0  0  0
    0.0000    0.0000    0.0000 C   0  0  0  0  0  0  0  0  0  0  0  0
    0.0000    0.0000    0.0000 C   0  0  0  0  0  0  0  0  0  0  0  0
    0.0000    0.0000    0.0000 N   0  0  0  0  0  0  0  0  0  0  0  0
    0.0000    0.0000    0.0000 C   0  0  0  0  0  0  0  0  0  0  0  0
    0.0000    0.0000    0.0000 C   0  0  0  0  0  0  0  0  0  0  0  0
    0.0000    0.0000    0.0000 N   0  0  0  0  0  0  0  0  0  0  0  0
    0.0000    0.0000    0.0000 C   0  0  0  0  0  0  0  0  0  0  0  0
    0.0000    0.0000    0.0000 C   0  0  0  0  0  0  0  0  0  0  0  0
    0.0000    0.0000    0.0000 C   0  0  0  0  0  0  0  0  0  0  0  0
    0.0000    0.0000    0.0000 C   0  0  0  0  0  0  0  0  0  0  0  0
  1  2  1  0
  2  3  2  0
  3  4  1  0
  4  5  2  0
  5  6  1  0
  5  7  1  0
  7  8  1  0
  7  9  2  0
  9 10  1  0
 10 11  1  0
 11 12  2  0
 12 13  1  0
 13 14  1  0
 14 15  1  0
  4 16  1  0
 16 17  1  0
 16 18  1  0
 16 19  1  0
  9  2  1  0
 15 11  1  0
M  END
>  <pIC50>  (150) 
7.64

>  <ChEMBL_ID>  (150) 
CHEMBL762

>  <document_journal>  (150) 
None

>  <bao_endpoint>  (150) 
BAO_0000190

>  <potential_duplicate>  (150) 
False

>  <uo_units>  (150) 
UO_0000065

>  <canonical_smiles>  (150) 
Cc1cc(c(O)c(C)c1CC2=NCCN2)C(C)(C)C

>  <parent_molecule_chembl_id>  (150) 
CHEMBL762

>  <assay_type>  (150) 
B

>  <src_id>  (150) 
15

>  <ligand_efficiency>  (150) 
{u'le': u'0.55', u'bei': u'29.34', u'sei': u'17.12', u'lle': u'4.36'}

>  <standard_flag>  (150) 
True

>  <molecule_chembl_id>  (150) 
CHEMBL762

>  <target_organism>  (150) 
Homo sapiens

>  <standard_units>  (150) 
nM

>  <record_id>  (150) 
1540021

>  <document_chembl_id>  (150) 
CHEMBL1909046

>  <bao_format>  (150) 
BAO_0000249

>  <data_validity_description>  (150) 
None

>  <activity_id>  (150) 
7714756

>  <standard_type>  (150) 
IC50

>  <target_chembl_id>  (150) 
CHEMBL1867

>  <data_validity_comment>  (150) 
None

>  <published_value>  (150) 
0.023

>  <document_year>  (150) 
None

>  <target_pref_name>  (150) 
Alpha-2a adrenergic receptor

>  <assay_chembl_id>  (150) 
CHEMBL1909088

>  <standard_relation>  (150) 
=

>  <assay_description>  (150) 
DRUGMATRIX: Alpha-2A adrenergic receptor radioligand binding (ligand: MK-912)

>  <published_relation>  (150) 
=

>  <standard_value>  (150) 
23

>  <qudt_units>  (150) 
http://www.openphacts.org/units/Nanomolar

>  <target_tax_id>  (150) 
9606

>  <bao_label>  (150) 
cell membrane format

>  <published_units>  (150) 
uM

>  <pchembl_value>  (150) 
7.64

>  <published_type>  (150) 
IC50

>  <activity_comment>  (150) 
None

$$$$

     RDKit          

 25 26  0  0  0  0  0  0  0  0999 V2000
    0.0000    0.0000    0.0000 N   0  0  0  0  0  0  0  0  0  0  0  0
    0.0000    0.0000    0.0000 C   0  0  0  0  0  0  0  0  0  0  0  0
    0.0000    0.0000    0.0000 N   0  0  0  0  0  0  0  0  0  0  0  0
    0.0000    0.0000    0.0000 C   0  0  0  0  0  0  0  0  0  0  0  0
    0.0000    0.0000    0.0000 C   0  0  0  0  0  0  0  0  0  0  0  0
    0.0000    0.0000    0.0000 C   0  0  0  0  0  0  0  0  0  0  0  0
    0.0000    0.0000    0.0000 C   0  0  0  0  0  0  0  0  0  0  0  0
    0.0000    0.0000    0.0000 O   0  0  0  0  0  0  0  0  0  0  0  0
    0.0000    0.0000    0.0000 C   0  0  0  0  0  0  0  0  0  0  0  0
    0.0000    0.0000    0.0000 C   0  0  0  0  0  0  0  0  0  0  0  0
    0.0000    0.0000    0.0000 C   0  0  0  0  0  0  0  0  0  0  0  0
    0.0000    0.0000    0.0000 C   0  0  0  0  0  0  0  0  0  0  0  0
    0.0000    0.0000    0.0000 C   0  0  0  0  0  0  0  0  0  0  0  0
    0.0000    0.0000    0.0000 O   0  0  0  0  0  0  0  0  0  0  0  0
    0.0000    0.0000    0.0000 C   0  0  0  0  0  0  0  0  0  0  0  0
    0.0000    0.0000    0.0000 C   0  0  0  0  0  0  0  0  0  0  0  0
    0.0000    0.0000    0.0000 C   0  0  0  0  0  0  0  0  0  0  0  0
    0.0000    0.0000    0.0000 C   0  0  0  0  0  0  0  0  0  0  0  0
    0.0000    0.0000    0.0000 C   0  0  0  0  0  0  0  0  0  0  0  0
    0.0000    0.0000    0.0000 C   0  0  0  0  0  0  0  0  0  0  0  0
    0.0000    0.0000    0.0000 C   0  0  0  0  0  0  0  0  0  0  0  0
    0.0000    0.0000    0.0000 N   0  0  0  0  0  0  0  0  0  0  0  0
    0.0000    0.0000    0.0000 N   0  0  0  0  0  0  0  0  0  0  0  0
    0.0000    0.0000    0.0000 C   0  0  0  0  0  0  0  0  0  0  0  0
    0.0000    0.0000    0.0000 C   0  0  0  0  0  0  0  0  0  0  0  0
  1  2  1  0
  2  3  2  0
  2  4  1  0
  4  5  2  0
  5  6  1  0
  6  7  2  0
  7  8  1  0
  8  9  1  0
  9 10  1  0
 10 11  1  0
 11 12  1  0
 12 13  1  0
 13 14  1  0
 14 15  1  0
 15 16  2  0
 16 17  1  0
 17 18  2  0
 18 19  1  0
 19 20  2  0
 18 21  1  0
 21 22  2  0
 21 23  1  0
  7 24  1  0
 24 25  2  0
 25  4  1  0
 20 15  1  0
M  END
>  <pIC50>  (151) 
5.86

>  <ChEMBL_ID>  (151) 
CHEMBL55

>  <document_journal>  (151) 
None

>  <bao_endpoint>  (151) 
BAO_0000190

>  <potential_duplicate>  (151) 
False

>  <uo_units>  (151) 
UO_0000065

>  <canonical_smiles>  (151) 
NC(=N)c1ccc(OCCCCCOc2ccc(cc2)C(=N)N)cc1

>  <parent_molecule_chembl_id>  (151) 
CHEMBL55

>  <assay_type>  (151) 
B

>  <src_id>  (151) 
15

>  <ligand_efficiency>  (151) 
{u'le': u'0.32', u'bei': u'17.22', u'sei': u'4.96', u'lle': u'3.2'}

>  <standard_flag>  (151) 
True

>  <molecule_chembl_id>  (151) 
CHEMBL55

>  <target_organism>  (151) 
Homo sapiens

>  <standard_units>  (151) 
nM

>  <record_id>  (151) 
1540038

>  <document_chembl_id>  (151) 
CHEMBL1909046

>  <bao_format>  (151) 
BAO_0000249

>  <data_validity_description>  (151) 
None

>  <activity_id>  (151) 
7719252

>  <standard_type>  (151) 
IC50

>  <target_chembl_id>  (151) 
CHEMBL1867

>  <data_validity_comment>  (151) 
None

>  <published_value>  (151) 
1.375

>  <document_year>  (151) 
None

>  <target_pref_name>  (151) 
Alpha-2a adrenergic receptor

>  <assay_chembl_id>  (151) 
CHEMBL1909088

>  <standard_relation>  (151) 
=

>  <assay_description>  (151) 
DRUGMATRIX: Alpha-2A adrenergic receptor radioligand binding (ligand: MK-912)

>  <published_relation>  (151) 
=

>  <standard_value>  (151) 
1375

>  <qudt_units>  (151) 
http://www.openphacts.org/units/Nanomolar

>  <target_tax_id>  (151) 
9606

>  <bao_label>  (151) 
cell membrane format

>  <published_units>  (151) 
uM

>  <pchembl_value>  (151) 
5.86

>  <published_type>  (151) 
IC50

>  <activity_comment>  (151) 
None

$$$$

     RDKit          

 20 22  0  0  0  0  0  0  0  0999 V2000
    0.0000    0.0000    0.0000 C   0  0  0  0  0  0  0  0  0  0  0  0
    0.0000    0.0000    0.0000 N   0  0  0  0  0  0  0  0  0  0  0  0
    0.0000    0.0000    0.0000 C   0  0  0  0  0  0  0  0  0  0  0  0
    0.0000    0.0000    0.0000 C   0  0  0  0  0  0  0  0  0  0  0  0
    0.0000    0.0000    0.0000 C   0  0  0  0  0  0  0  0  0  0  0  0
    0.0000    0.0000    0.0000 C   0  0  0  0  0  0  0  0  0  0  0  0
    0.0000    0.0000    0.0000 N   0  0  0  0  0  0  0  0  0  0  0  0
    0.0000    0.0000    0.0000 C   0  0  0  0  0  0  0  0  0  0  0  0
    0.0000    0.0000    0.0000 C   0  0  0  0  0  0  0  0  0  0  0  0
    0.0000    0.0000    0.0000 C   0  0  0  0  0  0  0  0  0  0  0  0
    0.0000    0.0000    0.0000 C   0  0  0  0  0  0  0  0  0  0  0  0
    0.0000    0.0000    0.0000 C   0  0  0  0  0  0  0  0  0  0  0  0
    0.0000    0.0000    0.0000 C   0  0  0  0  0  0  0  0  0  0  0  0
    0.0000    0.0000    0.0000 S   0  0  0  0  0  0  0  0  0  0  0  0
    0.0000    0.0000    0.0000 C   0  0  0  0  0  0  0  0  0  0  0  0
    0.0000    0.0000    0.0000 C   0  0  0  0  0  0  0  0  0  0  0  0
    0.0000    0.0000    0.0000 C   0  0  0  0  0  0  0  0  0  0  0  0
    0.0000    0.0000    0.0000 C   0  0  0  0  0  0  0  0  0  0  0  0
    0.0000    0.0000    0.0000 C   0  0  0  0  0  0  0  0  0  0  0  0
    0.0000    0.0000    0.0000 C   0  0  0  0  0  0  0  0  0  0  0  0
  1  2  1  0
  2  3  1  0
  2  4  1  0
  4  5  1  0
  5  6  1  0
  6  7  1  0
  7  8  1  0
  8  9  2  0
  9 10  1  0
 10 11  2  0
 11 12  1  0
 12 13  2  0
 13 14  1  0
 14 15  1  0
 15 16  2  0
 16 17  1  0
 17 18  2  0
 18 19  1  0
 19 20  2  0
 20  7  1  0
 13  8  1  0
 20 15  1  0
M  END
>  <pIC50>  (152) 
6.47

>  <ChEMBL_ID>  (152) 
CHEMBL564

>  <document_journal>  (152) 
None

>  <bao_endpoint>  (152) 
BAO_0000190

>  <potential_duplicate>  (152) 
False

>  <uo_units>  (152) 
UO_0000065

>  <canonical_smiles>  (152) 
CN(C)CCCN1c2ccccc2Sc3ccccc13

>  <parent_molecule_chembl_id>  (152) 
CHEMBL564

>  <assay_type>  (152) 
B

>  <src_id>  (152) 
15

>  <ligand_efficiency>  (152) 
{u'le': u'0.44', u'bei': u'22.76', u'sei': u'20.37', u'lle': u'2.39'}

>  <standard_flag>  (152) 
True

>  <molecule_chembl_id>  (152) 
CHEMBL564

>  <target_organism>  (152) 
Homo sapiens

>  <standard_units>  (152) 
nM

>  <record_id>  (152) 
1540087

>  <document_chembl_id>  (152) 
CHEMBL1909046

>  <bao_format>  (152) 
BAO_0000249

>  <data_validity_description>  (152) 
None

>  <activity_id>  (152) 
7720179

>  <standard_type>  (152) 
IC50

>  <target_chembl_id>  (152) 
CHEMBL1867

>  <data_validity_comment>  (152) 
None

>  <published_value>  (152) 
0.337

>  <document_year>  (152) 
None

>  <target_pref_name>  (152) 
Alpha-2a adrenergic receptor

>  <assay_chembl_id>  (152) 
CHEMBL1909088

>  <standard_relation>  (152) 
=

>  <assay_description>  (152) 
DRUGMATRIX: Alpha-2A adrenergic receptor radioligand binding (ligand: MK-912)

>  <published_relation>  (152) 
=

>  <standard_value>  (152) 
337

>  <qudt_units>  (152) 
http://www.openphacts.org/units/Nanomolar

>  <target_tax_id>  (152) 
9606

>  <bao_label>  (152) 
cell membrane format

>  <published_units>  (152) 
uM

>  <pchembl_value>  (152) 
6.47

>  <published_type>  (152) 
IC50

>  <activity_comment>  (152) 
None

$$$$

     RDKit          

 20 22  0  0  0  0  0  0  0  0999 V2000
    0.0000    0.0000    0.0000 C   0  0  0  0  0  0  0  0  0  0  0  0
    0.0000    0.0000    0.0000 C   0  0  0  0  0  0  0  0  0  0  0  0
    0.0000    0.0000    0.0000 C   0  0  0  0  0  0  0  0  0  0  0  0
    0.0000    0.0000    0.0000 N   0  0  0  0  0  0  0  0  0  0  0  0
    0.0000    0.0000    0.0000 C   0  0  0  0  0  0  0  0  0  0  0  0
    0.0000    0.0000    0.0000 C   0  0  0  0  0  0  0  0  0  0  0  0
    0.0000    0.0000    0.0000 C   0  0  0  0  0  0  0  0  0  0  0  0
    0.0000    0.0000    0.0000 C   0  0  0  0  0  0  0  0  0  0  0  0
    0.0000    0.0000    0.0000 C   0  0  0  0  0  0  0  0  0  0  0  0
    0.0000    0.0000    0.0000 C   0  0  0  0  0  0  0  0  0  0  0  0
    0.0000    0.0000    0.0000 S   0  0  0  0  0  0  0  0  0  0  0  0
    0.0000    0.0000    0.0000 C   0  0  0  0  0  0  0  0  0  0  0  0
    0.0000    0.0000    0.0000 C   0  0  0  0  0  0  0  0  0  0  0  0
    0.0000    0.0000    0.0000 C   0  0  0  0  0  0  0  0  0  0  0  0
    0.0000    0.0000    0.0000 C   0  0  0  0  0  0  0  0  0  0  0  0
    0.0000    0.0000    0.0000 C   0  0  0  0  0  0  0  0  0  0  0  0
    0.0000    0.0000    0.0000 C   0  0  0  0  0  0  0  0  0  0  0  0
    0.0000    0.0000    0.0000 N   0  0  0  0  0  0  0  0  0  0  0  0
    0.0000    0.0000    0.0000 C   0  0  0  0  0  0  0  0  0  0  0  0
    0.0000    0.0000    0.0000 C   0  0  0  0  0  0  0  0  0  0  0  0
  1  2  1  0
  2  3  1  0
  3  4  1  0
  4  5  1  0
  5  6  2  0
  6  7  1  0
  7  8  2  0
  8  9  1  0
  9 10  2  0
 10 11  1  0
 11 12  1  0
 12 13  2  0
 13 14  1  0
 14 15  2  0
 15 16  1  0
 16 17  2  0
  2 18  1  0
 18 19  1  0
 18 20  1  0
 17  4  1  0
 10  5  1  0
 17 12  1  0
M  END
>  <pIC50>  (153) 
6.17

>  <ChEMBL_ID>  (153) 
CHEMBL643

>  <document_journal>  (153) 
None

>  <bao_endpoint>  (153) 
BAO_0000190

>  <potential_duplicate>  (153) 
False

>  <uo_units>  (153) 
UO_0000065

>  <canonical_smiles>  (153) 
CC(CN1c2ccccc2Sc3ccccc13)N(C)C

>  <parent_molecule_chembl_id>  (153) 
CHEMBL643

>  <assay_type>  (153) 
B

>  <src_id>  (153) 
15

>  <ligand_efficiency>  (153) 
{u'le': u'0.42', u'bei': u'21.68', u'sei': u'19.4', u'lle': u'1.78'}

>  <standard_flag>  (153) 
True

>  <molecule_chembl_id>  (153) 
CHEMBL643

>  <target_organism>  (153) 
Homo sapiens

>  <standard_units>  (153) 
nM

>  <record_id>  (153) 
1540088

>  <document_chembl_id>  (153) 
CHEMBL1909046

>  <bao_format>  (153) 
BAO_0000249

>  <data_validity_description>  (153) 
None

>  <activity_id>  (153) 
7724404

>  <standard_type>  (153) 
IC50

>  <target_chembl_id>  (153) 
CHEMBL1867

>  <data_validity_comment>  (153) 
None

>  <published_value>  (153) 
0.681

>  <document_year>  (153) 
None

>  <target_pref_name>  (153) 
Alpha-2a adrenergic receptor

>  <assay_chembl_id>  (153) 
CHEMBL1909088

>  <standard_relation>  (153) 
=

>  <assay_description>  (153) 
DRUGMATRIX: Alpha-2A adrenergic receptor radioligand binding (ligand: MK-912)

>  <published_relation>  (153) 
=

>  <standard_value>  (153) 
681

>  <qudt_units>  (153) 
http://www.openphacts.org/units/Nanomolar

>  <target_tax_id>  (153) 
9606

>  <bao_label>  (153) 
cell membrane format

>  <published_units>  (153) 
uM

>  <pchembl_value>  (153) 
6.17

>  <published_type>  (153) 
IC50

>  <activity_comment>  (153) 
None

$$$$

     RDKit          

 22 25  0  0  0  0  0  0  0  0999 V2000
    0.0000    0.0000    0.0000 C   0  0  0  0  0  0  0  0  0  0  0  0
    0.0000    0.0000    0.0000 C   0  0  0  0  0  0  0  0  0  0  0  0
    0.0000    0.0000    0.0000 C   0  0  0  0  0  0  0  0  0  0  0  0
    0.0000    0.0000    0.0000 N   0  0  0  0  0  0  0  0  0  0  0  0
    0.0000    0.0000    0.0000 C   0  0  0  0  0  0  0  0  0  0  0  0
    0.0000    0.0000    0.0000 C   0  0  0  0  0  0  0  0  0  0  0  0
    0.0000    0.0000    0.0000 C   0  0  0  0  0  0  0  0  0  0  0  0
    0.0000    0.0000    0.0000 S   0  0  0  0  0  0  0  0  0  0  0  0
    0.0000    0.0000    0.0000 C   0  0  0  0  0  0  0  0  0  0  0  0
    0.0000    0.0000    0.0000 C   0  0  0  0  0  0  0  0  0  0  0  0
    0.0000    0.0000    0.0000 C   0  0  0  0  0  0  0  0  0  0  0  0
    0.0000    0.0000    0.0000 C   0  0  0  0  0  0  0  0  0  0  0  0
    0.0000    0.0000    0.0000 C   0  0  0  0  0  0  0  0  0  0  0  0
    0.0000    0.0000    0.0000 C   0  0  0  0  0  0  0  0  0  0  0  0
    0.0000    0.0000    0.0000 C   0  0  0  0  0  0  0  0  0  0  0  0
    0.0000    0.0000    0.0000 N   0  0  0  0  0  0  0  0  0  0  0  0
    0.0000    0.0000    0.0000 C   0  0  0  0  0  0  0  0  0  0  0  0
    0.0000    0.0000    0.0000 C   0  0  0  0  0  0  0  0  0  0  0  0
    0.0000    0.0000    0.0000 C   0  0  0  0  0  0  0  0  0  0  0  0
    0.0000    0.0000    0.0000 C   0  0  0  0  0  0  0  0  0  0  0  0
    0.0000    0.0000    0.0000 C   0  0  0  0  0  0  0  0  0  0  0  0
    0.0000    0.0000    0.0000 C   0  0  0  0  0  0  0  0  0  0  0  0
  1  2  1  0
  2  3  1  0
  3  4  1  0
  4  5  1  0
  5  6  1  0
  6  7  1  0
  7  8  1  0
  8  9  1  0
  6 10  1  0
 10 11  1  0
 11 12  1  0
 12 13  1  0
 13 14  1  0
 14 15  2  0
 15 16  1  0
 16 17  1  0
 17 18  2  0
 18 19  1  0
 19 20  2  0
 20 21  1  0
 21 22  2  0
 12  4  1  0
 21 11  1  0
 22 14  1  0
 22 17  1  0
M  END
>  <pIC50>  (154) 
6.58

>  <ChEMBL_ID>  (154) 
CHEMBL531

>  <document_journal>  (154) 
None

>  <bao_endpoint>  (154) 
BAO_0000190

>  <potential_duplicate>  (154) 
False

>  <uo_units>  (154) 
UO_0000065

>  <canonical_smiles>  (154) 
CCCN1C[C@H](CSC)C[C@H]2[C@H]1Cc3c[nH]c4cccc2c34

>  <parent_molecule_chembl_id>  (154) 
CHEMBL531

>  <assay_type>  (154) 
B

>  <src_id>  (154) 
15

>  <ligand_efficiency>  (154) 
{u'le': u'0.41', u'bei': u'20.92', u'sei': u'14.84', u'lle': u'2.47'}

>  <standard_flag>  (154) 
True

>  <molecule_chembl_id>  (154) 
CHEMBL531

>  <target_organism>  (154) 
Homo sapiens

>  <standard_units>  (154) 
nM

>  <record_id>  (154) 
1540040

>  <document_chembl_id>  (154) 
CHEMBL1909046

>  <bao_format>  (154) 
BAO_0000249

>  <data_validity_description>  (154) 
None

>  <activity_id>  (154) 
7725760

>  <standard_type>  (154) 
IC50

>  <target_chembl_id>  (154) 
CHEMBL1867

>  <data_validity_comment>  (154) 
None

>  <published_value>  (154) 
0.264

>  <document_year>  (154) 
None

>  <target_pref_name>  (154) 
Alpha-2a adrenergic receptor

>  <assay_chembl_id>  (154) 
CHEMBL1909088

>  <standard_relation>  (154) 
=

>  <assay_description>  (154) 
DRUGMATRIX: Alpha-2A adrenergic receptor radioligand binding (ligand: MK-912)

>  <published_relation>  (154) 
=

>  <standard_value>  (154) 
264

>  <qudt_units>  (154) 
http://www.openphacts.org/units/Nanomolar

>  <target_tax_id>  (154) 
9606

>  <bao_label>  (154) 
cell membrane format

>  <published_units>  (154) 
uM

>  <pchembl_value>  (154) 
6.58

>  <published_type>  (154) 
IC50

>  <activity_comment>  (154) 
None

$$$$

     RDKit          

 28 31  0  0  0  0  0  0  0  0999 V2000
    0.0000    0.0000    0.0000 C   0  0  0  0  0  0  0  0  0  0  0  0
    0.0000    0.0000    0.0000 O   0  0  0  0  0  0  0  0  0  0  0  0
    0.0000    0.0000    0.0000 C   0  0  0  0  0  0  0  0  0  0  0  0
    0.0000    0.0000    0.0000 C   0  0  0  0  0  0  0  0  0  0  0  0
    0.0000    0.0000    0.0000 C   0  0  0  0  0  0  0  0  0  0  0  0
    0.0000    0.0000    0.0000 N   0  0  0  0  0  0  0  0  0  0  0  0
    0.0000    0.0000    0.0000 C   0  0  0  0  0  0  0  0  0  0  0  0
    0.0000    0.0000    0.0000 N   0  0  0  0  0  0  0  0  0  0  0  0
    0.0000    0.0000    0.0000 C   0  0  0  0  0  0  0  0  0  0  0  0
    0.0000    0.0000    0.0000 N   0  0  0  0  0  0  0  0  0  0  0  0
    0.0000    0.0000    0.0000 C   0  0  0  0  0  0  0  0  0  0  0  0
    0.0000    0.0000    0.0000 C   0  0  0  0  0  0  0  0  0  0  0  0
    0.0000    0.0000    0.0000 C   0  0  0  0  0  0  0  0  0  0  0  0
    0.0000    0.0000    0.0000 O   0  0  0  0  0  0  0  0  0  0  0  0
    0.0000    0.0000    0.0000 C   0  0  0  0  0  0  0  0  0  0  0  0
    0.0000    0.0000    0.0000 N   0  0  0  0  0  0  0  0  0  0  0  0
    0.0000    0.0000    0.0000 C   0  0  0  0  0  0  0  0  0  0  0  0
    0.0000    0.0000    0.0000 C   0  0  0  0  0  0  0  0  0  0  0  0
    0.0000    0.0000    0.0000 N   0  0  0  0  0  0  0  0  0  0  0  0
    0.0000    0.0000    0.0000 C   0  0  0  0  0  0  0  0  0  0  0  0
    0.0000    0.0000    0.0000 C   0  0  0  0  0  0  0  0  0  0  0  0
    0.0000    0.0000    0.0000 C   0  0  0  0  0  0  0  0  0  0  0  0
    0.0000    0.0000    0.0000 O   0  0  0  0  0  0  0  0  0  0  0  0
    0.0000    0.0000    0.0000 C   0  0  0  0  0  0  0  0  0  0  0  0
    0.0000    0.0000    0.0000 O   0  0  0  0  0  0  0  0  0  0  0  0
    0.0000    0.0000    0.0000 C   0  0  0  0  0  0  0  0  0  0  0  0
    0.0000    0.0000    0.0000 C   0  0  0  0  0  0  0  0  0  0  0  0
    0.0000    0.0000    0.0000 C   0  0  0  0  0  0  0  0  0  0  0  0
  1  2  1  0
  2  3  1  0
  3  4  2  0
  4  5  1  0
  5  6  2  0
  6  7  1  0
  7  8  2  0
  8  9  1  0
  9 10  1  0
  9 11  2  0
 11 12  1  0
 12 13  2  0
 13 14  1  0
 14 15  1  0
  7 16  1  0
 16 17  1  0
 17 18  1  0
 18 19  1  0
 19 20  1  0
 20 21  1  0
 19 22  1  0
 22 23  2  0
 22 24  1  0
 24 25  1  0
 25 26  1  0
 26 27  2  0
 27 28  1  0
 13  3  1  0
 11  5  1  0
 21 16  1  0
 28 24  2  0
M  END
>  <pIC50>  (155) 
5.58

>  <ChEMBL_ID>  (155) 
CHEMBL2

>  <document_journal>  (155) 
None

>  <bao_endpoint>  (155) 
BAO_0000190

>  <potential_duplicate>  (155) 
False

>  <uo_units>  (155) 
UO_0000065

>  <canonical_smiles>  (155) 
COc1cc2nc(nc(N)c2cc1OC)N3CCN(CC3)C(=O)c4occc4

>  <parent_molecule_chembl_id>  (155) 
CHEMBL2

>  <assay_type>  (155) 
B

>  <src_id>  (155) 
15

>  <ligand_efficiency>  (155) 
{u'le': u'0.27', u'bei': u'14.55', u'sei': u'5.22', u'lle': u'3.47'}

>  <standard_flag>  (155) 
True

>  <molecule_chembl_id>  (155) 
CHEMBL2

>  <target_organism>  (155) 
Homo sapiens

>  <standard_units>  (155) 
nM

>  <record_id>  (155) 
1540072

>  <document_chembl_id>  (155) 
CHEMBL1909046

>  <bao_format>  (155) 
BAO_0000249

>  <data_validity_description>  (155) 
None

>  <activity_id>  (155) 
7726221

>  <standard_type>  (155) 
IC50

>  <target_chembl_id>  (155) 
CHEMBL1867

>  <data_validity_comment>  (155) 
None

>  <published_value>  (155) 
2.638

>  <document_year>  (155) 
None

>  <target_pref_name>  (155) 
Alpha-2a adrenergic receptor

>  <assay_chembl_id>  (155) 
CHEMBL1909088

>  <standard_relation>  (155) 
=

>  <assay_description>  (155) 
DRUGMATRIX: Alpha-2A adrenergic receptor radioligand binding (ligand: MK-912)

>  <published_relation>  (155) 
=

>  <standard_value>  (155) 
2638

>  <qudt_units>  (155) 
http://www.openphacts.org/units/Nanomolar

>  <target_tax_id>  (155) 
9606

>  <bao_label>  (155) 
cell membrane format

>  <published_units>  (155) 
uM

>  <pchembl_value>  (155) 
5.58

>  <published_type>  (155) 
IC50

>  <activity_comment>  (155) 
None

$$$$

     RDKit          

 21 22  0  0  0  0  0  0  0  0999 V2000
    0.0000    0.0000    0.0000 C   0  0  0  0  0  0  0  0  0  0  0  0
    0.0000    0.0000    0.0000 O   0  0  0  0  0  0  0  0  0  0  0  0
    0.0000    0.0000    0.0000 C   0  0  0  0  0  0  0  0  0  0  0  0
    0.0000    0.0000    0.0000 C   0  0  0  0  0  0  0  0  0  0  0  0
    0.0000    0.0000    0.0000 C   0  0  0  0  0  0  0  0  0  0  0  0
    0.0000    0.0000    0.0000 C   0  0  0  0  0  0  0  0  0  0  0  0
    0.0000    0.0000    0.0000 C   0  0  0  0  0  0  0  0  0  0  0  0
    0.0000    0.0000    0.0000 N   0  0  0  0  0  0  0  0  0  0  0  0
    0.0000    0.0000    0.0000 C   0  0  0  0  0  0  0  0  0  0  0  0
    0.0000    0.0000    0.0000 C   0  0  0  0  0  0  0  0  0  0  0  0
    0.0000    0.0000    0.0000 N   0  0  0  0  0  0  0  0  0  0  0  0
    0.0000    0.0000    0.0000 C   0  0  0  0  0  0  0  0  0  0  0  0
    0.0000    0.0000    0.0000 C   0  0  0  0  0  0  0  0  0  0  0  0
    0.0000    0.0000    0.0000 C   0  0  0  0  0  0  0  0  0  0  0  0
    0.0000    0.0000    0.0000 C   0  0  0  0  0  0  0  0  0  0  0  0
    0.0000    0.0000    0.0000 C   0  0  0  0  0  0  0  0  0  0  0  0
    0.0000    0.0000    0.0000 C   0  0  0  0  0  0  0  0  0  0  0  0
    0.0000    0.0000    0.0000 C   0  0  0  0  0  0  0  0  0  0  0  0
    0.0000    0.0000    0.0000 N   0  0  0  0  0  0  0  0  0  0  0  0
    0.0000    0.0000    0.0000 C   0  0  0  0  0  0  0  0  0  0  0  0
    0.0000    0.0000    0.0000 C   0  0  0  0  0  0  0  0  0  0  0  0
  1  2  1  0
  2  3  1  0
  3  4  2  0
  4  5  1  0
  5  6  2  0
  6  7  1  0
  7  8  1  0
  8  9  1  0
  9 10  1  0
 10 11  1  0
 11 12  1  0
 11 13  1  0
  8 14  1  0
 14 15  2  0
 15 16  1  0
 16 17  2  0
 17 18  1  0
 18 19  2  0
  6 20  1  0
 20 21  2  0
 21  3  1  0
 19 14  1  0
M  END
>  <pIC50>  (156) 
5.53

>  <ChEMBL_ID>  (156) 
CHEMBL511

>  <document_journal>  (156) 
None

>  <bao_endpoint>  (156) 
BAO_0000190

>  <potential_duplicate>  (156) 
False

>  <uo_units>  (156) 
UO_0000065

>  <canonical_smiles>  (156) 
COc1ccc(CN(CCN(C)C)c2ccccn2)cc1

>  <parent_molecule_chembl_id>  (156) 
CHEMBL511

>  <assay_type>  (156) 
B

>  <src_id>  (156) 
15

>  <ligand_efficiency>  (156) 
{u'le': u'0.36', u'bei': u'19.36', u'sei': u'19.32', u'lle': u'2.44'}

>  <standard_flag>  (156) 
True

>  <molecule_chembl_id>  (156) 
CHEMBL511

>  <target_organism>  (156) 
Homo sapiens

>  <standard_units>  (156) 
nM

>  <record_id>  (156) 
1540098

>  <document_chembl_id>  (156) 
CHEMBL1909046

>  <bao_format>  (156) 
BAO_0000249

>  <data_validity_description>  (156) 
None

>  <activity_id>  (156) 
7733023

>  <standard_type>  (156) 
IC50

>  <target_chembl_id>  (156) 
CHEMBL1867

>  <data_validity_comment>  (156) 
None

>  <published_value>  (156) 
2.976

>  <document_year>  (156) 
None

>  <target_pref_name>  (156) 
Alpha-2a adrenergic receptor

>  <assay_chembl_id>  (156) 
CHEMBL1909088

>  <standard_relation>  (156) 
=

>  <assay_description>  (156) 
DRUGMATRIX: Alpha-2A adrenergic receptor radioligand binding (ligand: MK-912)

>  <published_relation>  (156) 
=

>  <standard_value>  (156) 
2976

>  <qudt_units>  (156) 
http://www.openphacts.org/units/Nanomolar

>  <target_tax_id>  (156) 
9606

>  <bao_label>  (156) 
cell membrane format

>  <published_units>  (156) 
uM

>  <pchembl_value>  (156) 
5.53

>  <published_type>  (156) 
IC50

>  <activity_comment>  (156) 
None

$$$$

     RDKit          

 22 25  0  0  0  0  0  0  0  0999 V2000
    0.0000    0.0000    0.0000 C   0  0  0  0  0  0  0  0  0  0  0  0
    0.0000    0.0000    0.0000 N   0  0  0  0  0  0  0  0  0  0  0  0
    0.0000    0.0000    0.0000 C   0  0  0  0  0  0  0  0  0  0  0  0
    0.0000    0.0000    0.0000 C   0  0  0  0  0  0  0  0  0  0  0  0
    0.0000    0.0000    0.0000 N   0  0  0  0  0  0  0  0  0  0  0  0
    0.0000    0.0000    0.0000 C   0  0  0  0  0  0  0  0  0  0  0  0
    0.0000    0.0000    0.0000 C   0  0  0  0  0  0  0  0  0  0  0  0
    0.0000    0.0000    0.0000 C   0  0  0  0  0  0  0  0  0  0  0  0
    0.0000    0.0000    0.0000 N   0  0  0  0  0  0  0  0  0  0  0  0
    0.0000    0.0000    0.0000 C   0  0  0  0  0  0  0  0  0  0  0  0
    0.0000    0.0000    0.0000 C   0  0  0  0  0  0  0  0  0  0  0  0
    0.0000    0.0000    0.0000 C   0  0  0  0  0  0  0  0  0  0  0  0
    0.0000    0.0000    0.0000 C   0  0  0  0  0  0  0  0  0  0  0  0
    0.0000    0.0000    0.0000 C   0  0  0  0  0  0  0  0  0  0  0  0
    0.0000    0.0000    0.0000 C   0  0  0  0  0  0  0  0  0  0  0  0
    0.0000    0.0000    0.0000 N   0  0  0  0  0  0  0  0  0  0  0  0
    0.0000    0.0000    0.0000 C   0  0  0  0  0  0  0  0  0  0  0  0
    0.0000    0.0000    0.0000 S   0  0  0  0  0  0  0  0  0  0  0  0
    0.0000    0.0000    0.0000 C   0  0  0  0  0  0  0  0  0  0  0  0
    0.0000    0.0000    0.0000 C   0  0  0  0  0  0  0  0  0  0  0  0
    0.0000    0.0000    0.0000 C   0  0  0  0  0  0  0  0  0  0  0  0
    0.0000    0.0000    0.0000 C   0  0  0  0  0  0  0  0  0  0  0  0
  1  2  1  0
  2  3  1  0
  3  4  1  0
  4  5  1  0
  5  6  1  0
  6  7  1  0
  5  8  1  0
  8  9  2  0
  9 10  1  0
 10 11  2  0
 11 12  1  0
 12 13  2  0
 13 14  1  0
 14 15  2  0
 15 16  1  0
 16 17  1  0
 17 18  1  0
 18 19  1  0
 19 20  1  0
 19 21  2  0
 21 22  1  0
  7  2  1  0
 22  8  1  0
 15 10  1  0
 22 17  2  0
M  END
>  <pIC50>  (157) 
6.27

>  <ChEMBL_ID>  (157) 
CHEMBL715

>  <document_journal>  (157) 
None

>  <bao_endpoint>  (157) 
BAO_0000190

>  <potential_duplicate>  (157) 
False

>  <uo_units>  (157) 
UO_0000065

>  <canonical_smiles>  (157) 
CN1CCN(CC1)C2=Nc3ccccc3Nc4sc(C)cc24

>  <parent_molecule_chembl_id>  (157) 
CHEMBL715

>  <assay_type>  (157) 
B

>  <src_id>  (157) 
15

>  <ligand_efficiency>  (157) 
{u'le': u'0.39', u'bei': u'20.06', u'sei': u'10.6', u'lle': u'3.58'}

>  <standard_flag>  (157) 
True

>  <molecule_chembl_id>  (157) 
CHEMBL715

>  <target_organism>  (157) 
Homo sapiens

>  <standard_units>  (157) 
nM

>  <record_id>  (157) 
1540010

>  <document_chembl_id>  (157) 
CHEMBL1909046

>  <bao_format>  (157) 
BAO_0000249

>  <data_validity_description>  (157) 
None

>  <activity_id>  (157) 
7733769

>  <standard_type>  (157) 
IC50

>  <target_chembl_id>  (157) 
CHEMBL1867

>  <data_validity_comment>  (157) 
None

>  <published_value>  (157) 
0.541

>  <document_year>  (157) 
None

>  <target_pref_name>  (157) 
Alpha-2a adrenergic receptor

>  <assay_chembl_id>  (157) 
CHEMBL1909088

>  <standard_relation>  (157) 
=

>  <assay_description>  (157) 
DRUGMATRIX: Alpha-2A adrenergic receptor radioligand binding (ligand: MK-912)

>  <published_relation>  (157) 
=

>  <standard_value>  (157) 
541

>  <qudt_units>  (157) 
http://www.openphacts.org/units/Nanomolar

>  <target_tax_id>  (157) 
9606

>  <bao_label>  (157) 
cell membrane format

>  <published_units>  (157) 
uM

>  <pchembl_value>  (157) 
6.27

>  <published_type>  (157) 
IC50

>  <activity_comment>  (157) 
None

$$$$

     RDKit          

 21 23  0  0  0  0  0  0  0  0999 V2000
    0.0000    0.0000    0.0000 C   0  0  0  0  0  0  0  0  0  0  0  0
    0.0000    0.0000    0.0000 C   0  0  0  0  0  0  0  0  0  0  0  0
    0.0000    0.0000    0.0000 C   0  0  0  0  0  0  0  0  0  0  0  0
    0.0000    0.0000    0.0000 C   0  0  0  0  0  0  0  0  0  0  0  0
    0.0000    0.0000    0.0000 C   0  0  0  0  0  0  0  0  0  0  0  0
    0.0000    0.0000    0.0000 C   0  0  0  0  0  0  0  0  0  0  0  0
    0.0000    0.0000    0.0000 C   0  0  0  0  0  0  0  0  0  0  0  0
    0.0000    0.0000    0.0000 N   0  0  0  0  0  0  0  0  0  0  0  0
    0.0000    0.0000    0.0000 C   0  0  0  0  0  0  0  0  0  0  0  0
    0.0000    0.0000    0.0000 C   0  0  0  0  0  0  0  0  0  0  0  0
    0.0000    0.0000    0.0000 N   0  0  0  0  0  0  0  0  0  0  0  0
    0.0000    0.0000    0.0000 C   0  0  0  0  0  0  0  0  0  0  0  0
    0.0000    0.0000    0.0000 C   0  0  0  0  0  0  0  0  0  0  0  0
    0.0000    0.0000    0.0000 N   0  0  0  0  0  0  0  0  0  0  0  0
    0.0000    0.0000    0.0000 C   0  0  0  0  0  0  0  0  0  0  0  0
    0.0000    0.0000    0.0000 C   0  0  0  0  0  0  0  0  0  0  0  0
    0.0000    0.0000    0.0000 C   0  0  0  0  0  0  0  0  0  0  0  0
    0.0000    0.0000    0.0000 C   0  0  0  0  0  0  0  0  0  0  0  0
    0.0000    0.0000    0.0000 C   0  0  0  0  0  0  0  0  0  0  0  0
    0.0000    0.0000    0.0000 O   0  0  0  0  0  0  0  0  0  0  0  0
    0.0000    0.0000    0.0000 C   0  0  0  0  0  0  0  0  0  0  0  0
  1  2  1  0
  2  3  2  0
  3  4  1  0
  4  5  2  0
  5  6  1  0
  6  7  2  0
  5  8  1  0
  8  9  1  0
  9 10  1  0
 10 11  2  0
 11 12  1  0
 12 13  1  0
 13 14  1  0
  8 15  1  0
 15 16  2  0
 16 17  1  0
 17 18  2  0
 18 19  1  0
 19 20  1  0
 19 21  2  0
  7  2  1  0
 14 10  1  0
 21 15  1  0
M  END
>  <pIC50>  (158) 
8.22

>  <ChEMBL_ID>  (158) 
CHEMBL597

>  <document_journal>  (158) 
None

>  <bao_endpoint>  (158) 
BAO_0000190

>  <potential_duplicate>  (158) 
False

>  <uo_units>  (158) 
UO_0000065

>  <canonical_smiles>  (158) 
Cc1ccc(cc1)N(CC2=NCCN2)c3cccc(O)c3

>  <parent_molecule_chembl_id>  (158) 
CHEMBL597

>  <assay_type>  (158) 
B

>  <src_id>  (158) 
15

>  <ligand_efficiency>  (158) 
{u'le': u'0.53', u'bei': u'29.22', u'sei': u'17.18', u'lle': u'5.25'}

>  <standard_flag>  (158) 
True

>  <molecule_chembl_id>  (158) 
CHEMBL597

>  <target_organism>  (158) 
Homo sapiens

>  <standard_units>  (158) 
nM

>  <record_id>  (158) 
1540050

>  <document_chembl_id>  (158) 
CHEMBL1909046

>  <bao_format>  (158) 
BAO_0000249

>  <data_validity_description>  (158) 
None

>  <activity_id>  (158) 
7734412

>  <standard_type>  (158) 
IC50

>  <target_chembl_id>  (158) 
CHEMBL1867

>  <data_validity_comment>  (158) 
None

>  <published_value>  (158) 
0.006

>  <document_year>  (158) 
None

>  <target_pref_name>  (158) 
Alpha-2a adrenergic receptor

>  <assay_chembl_id>  (158) 
CHEMBL1909088

>  <standard_relation>  (158) 
=

>  <assay_description>  (158) 
DRUGMATRIX: Alpha-2A adrenergic receptor radioligand binding (ligand: MK-912)

>  <published_relation>  (158) 
=

>  <standard_value>  (158) 
6

>  <qudt_units>  (158) 
http://www.openphacts.org/units/Nanomolar

>  <target_tax_id>  (158) 
9606

>  <bao_label>  (158) 
cell membrane format

>  <published_units>  (158) 
uM

>  <pchembl_value>  (158) 
8.22

>  <published_type>  (158) 
IC50

>  <activity_comment>  (158) 
None

$$$$

     RDKit          

 27 30  0  0  0  0  0  0  0  0999 V2000
    0.0000    0.0000    0.0000 N   0  0  0  0  0  0  0  0  0  0  0  0
    0.0000    0.0000    0.0000 C   0  0  0  0  0  0  0  0  0  0  0  0
    0.0000    0.0000    0.0000 O   0  0  0  0  0  0  0  0  0  0  0  0
    0.0000    0.0000    0.0000 C   0  0  0  0  0  0  0  0  0  0  0  0
    0.0000    0.0000    0.0000 C   0  0  0  0  0  0  0  0  0  0  0  0
    0.0000    0.0000    0.0000 C   0  0  0  0  0  0  0  0  0  0  0  0
    0.0000    0.0000    0.0000 N   0  0  0  0  0  0  0  0  0  0  0  0
    0.0000    0.0000    0.0000 C   0  0  0  0  0  0  0  0  0  0  0  0
    0.0000    0.0000    0.0000 C   0  0  0  0  0  0  0  0  0  0  0  0
    0.0000    0.0000    0.0000 C   0  0  0  0  0  0  0  0  0  0  0  0
    0.0000    0.0000    0.0000 N   0  0  0  0  0  0  0  0  0  0  0  0
    0.0000    0.0000    0.0000 C   0  0  0  0  0  0  0  0  0  0  0  0
    0.0000    0.0000    0.0000 C   0  0  0  0  0  0  0  0  0  0  0  0
    0.0000    0.0000    0.0000 C   0  0  0  0  0  0  0  0  0  0  0  0
    0.0000    0.0000    0.0000 C   0  0  0  0  0  0  0  0  0  0  0  0
    0.0000    0.0000    0.0000 C   0  0  0  0  0  0  0  0  0  0  0  0
    0.0000    0.0000    0.0000 C   0  0  0  0  0  0  0  0  0  0  0  0
    0.0000    0.0000    0.0000 S   0  0  0  0  0  0  0  0  0  0  0  0
    0.0000    0.0000    0.0000 C   0  0  0  0  0  0  0  0  0  0  0  0
    0.0000    0.0000    0.0000 C   0  0  0  0  0  0  0  0  0  0  0  0
    0.0000    0.0000    0.0000 C   0  0  0  0  0  0  0  0  0  0  0  0
    0.0000    0.0000    0.0000 C   0  0  0  0  0  0  0  0  0  0  0  0
    0.0000    0.0000    0.0000 Cl  0  0  0  0  0  0  0  0  0  0  0  0
    0.0000    0.0000    0.0000 C   0  0  0  0  0  0  0  0  0  0  0  0
    0.0000    0.0000    0.0000 C   0  0  0  0  0  0  0  0  0  0  0  0
    0.0000    0.0000    0.0000 C   0  0  0  0  0  0  0  0  0  0  0  0
    0.0000    0.0000    0.0000 C   0  0  0  0  0  0  0  0  0  0  0  0
  1  2  1  0
  2  3  2  0
  2  4  1  0
  4  5  1  0
  5  6  1  0
  6  7  1  0
  7  8  1  0
  8  9  1  0
  9 10  1  0
 10 11  1  0
 11 12  1  0
 12 13  2  0
 13 14  1  0
 14 15  2  0
 15 16  1  0
 16 17  2  0
 17 18  1  0
 18 19  1  0
 19 20  2  0
 20 21  1  0
 21 22  2  0
 22 23  1  0
 22 24  1  0
 24 25  2  0
  7 26  1  0
 26 27  1  0
 27  4  1  0
 25 11  1  0
 17 12  1  0
 25 19  1  0
M  END
>  <pIC50>  (159) 
7.18

>  <ChEMBL_ID>  (159) 
CHEMBL1909072

>  <document_journal>  (159) 
None

>  <bao_endpoint>  (159) 
BAO_0000190

>  <potential_duplicate>  (159) 
False

>  <uo_units>  (159) 
UO_0000065

>  <canonical_smiles>  (159) 
NC(=O)C1CCN(CCCN2c3ccccc3Sc4ccc(Cl)cc24)CC1

>  <parent_molecule_chembl_id>  (159) 
CHEMBL1909072

>  <assay_type>  (159) 
B

>  <src_id>  (159) 
15

>  <ligand_efficiency>  (159) 
{u'le': u'0.36', u'bei': u'17.86', u'sei': u'9.59', u'lle': u'2.97'}

>  <standard_flag>  (159) 
True

>  <molecule_chembl_id>  (159) 
CHEMBL1909072

>  <target_organism>  (159) 
Homo sapiens

>  <standard_units>  (159) 
nM

>  <record_id>  (159) 
1540058

>  <document_chembl_id>  (159) 
CHEMBL1909046

>  <bao_format>  (159) 
BAO_0000249

>  <data_validity_description>  (159) 
None

>  <activity_id>  (159) 
7734533

>  <standard_type>  (159) 
IC50

>  <target_chembl_id>  (159) 
CHEMBL1867

>  <data_validity_comment>  (159) 
None

>  <published_value>  (159) 
0.066

>  <document_year>  (159) 
None

>  <target_pref_name>  (159) 
Alpha-2a adrenergic receptor

>  <assay_chembl_id>  (159) 
CHEMBL1909088

>  <standard_relation>  (159) 
=

>  <assay_description>  (159) 
DRUGMATRIX: Alpha-2A adrenergic receptor radioligand binding (ligand: MK-912)

>  <published_relation>  (159) 
=

>  <standard_value>  (159) 
66

>  <qudt_units>  (159) 
http://www.openphacts.org/units/Nanomolar

>  <target_tax_id>  (159) 
9606

>  <bao_label>  (159) 
cell membrane format

>  <published_units>  (159) 
uM

>  <pchembl_value>  (159) 
7.18

>  <published_type>  (159) 
IC50

>  <activity_comment>  (159) 
None

$$$$

     RDKit          

 26 28  0  0  0  0  0  0  0  0999 V2000
    0.0000    0.0000    0.0000 Cl  0  0  0  0  0  0  0  0  0  0  0  0
    0.0000    0.0000    0.0000 C   0  0  0  0  0  0  0  0  0  0  0  0
    0.0000    0.0000    0.0000 C   0  0  0  0  0  0  0  0  0  0  0  0
    0.0000    0.0000    0.0000 C   0  0  0  0  0  0  0  0  0  0  0  0
    0.0000    0.0000    0.0000 C   0  0  0  0  0  0  0  0  0  0  0  0
    0.0000    0.0000    0.0000 C   0  0  0  0  0  0  0  0  0  0  0  0
    0.0000    0.0000    0.0000 O   0  0  0  0  0  0  0  0  0  0  0  0
    0.0000    0.0000    0.0000 N   0  0  0  0  0  0  0  0  0  0  0  0
    0.0000    0.0000    0.0000 C   0  0  0  0  0  0  0  0  0  0  0  0
    0.0000    0.0000    0.0000 C   0  0  0  0  0  0  0  0  0  0  0  0
    0.0000    0.0000    0.0000 N   0  0  0  0  0  0  0  0  0  0  0  0
    0.0000    0.0000    0.0000 C   0  0  0  0  0  0  0  0  0  0  0  0
    0.0000    0.0000    0.0000 C   0  0  0  0  0  0  0  0  0  0  0  0
    0.0000    0.0000    0.0000 N   0  0  0  0  0  0  0  0  0  0  0  0
    0.0000    0.0000    0.0000 C   0  0  0  0  0  0  0  0  0  0  0  0
    0.0000    0.0000    0.0000 C   0  0  0  0  0  0  0  0  0  0  0  0
    0.0000    0.0000    0.0000 C   0  0  0  0  0  0  0  0  0  0  0  0
    0.0000    0.0000    0.0000 C   0  0  0  0  0  0  0  0  0  0  0  0
    0.0000    0.0000    0.0000 C   0  0  0  0  0  0  0  0  0  0  0  0
    0.0000    0.0000    0.0000 Cl  0  0  0  0  0  0  0  0  0  0  0  0
    0.0000    0.0000    0.0000 C   0  0  0  0  0  0  0  0  0  0  0  0
    0.0000    0.0000    0.0000 C   0  0  0  0  0  0  0  0  0  0  0  0
    0.0000    0.0000    0.0000 Cl  0  0  0  0  0  0  0  0  0  0  0  0
    0.0000    0.0000    0.0000 C   0  0  0  0  0  0  0  0  0  0  0  0
    0.0000    0.0000    0.0000 Cl  0  0  0  0  0  0  0  0  0  0  0  0
    0.0000    0.0000    0.0000 C   0  0  0  0  0  0  0  0  0  0  0  0
  1  2  1  0
  2  3  2  0
  3  4  1  0
  4  5  2  0
  5  6  1  0
  6  7  1  0
  7  8  1  0
  8  9  2  0
  9 10  1  0
 10 11  1  0
 11 12  1  0
 12 13  2  0
 13 14  1  0
 14 15  2  0
  9 16  1  0
 16 17  2  0
 17 18  1  0
 18 19  2  0
 19 20  1  0
 19 21  1  0
 21 22  2  0
 22 23  1  0
  5 24  1  0
 24 25  1  0
 24 26  2  0
 26  2  1  0
 15 11  1  0
 22 16  1  0
M  END
>  <pIC50>  (160) 
5.39

>  <ChEMBL_ID>  (160) 
CHEMBL1262

>  <document_journal>  (160) 
None

>  <bao_endpoint>  (160) 
BAO_0000190

>  <potential_duplicate>  (160) 
False

>  <uo_units>  (160) 
UO_0000065

>  <canonical_smiles>  (160) 
Clc1ccc(CO\N=C(/Cn2ccnc2)\c3ccc(Cl)cc3Cl)c(Cl)c1

>  <parent_molecule_chembl_id>  (160) 
CHEMBL1262

>  <assay_type>  (160) 
B

>  <src_id>  (160) 
15

>  <ligand_efficiency>  (160) 
{u'le': u'0.28', u'bei': u'12.56', u'sei': u'13.68', u'lle': u'-0.14'}

>  <standard_flag>  (160) 
True

>  <molecule_chembl_id>  (160) 
CHEMBL1262

>  <target_organism>  (160) 
Homo sapiens

>  <standard_units>  (160) 
nM

>  <record_id>  (160) 
1540019

>  <document_chembl_id>  (160) 
CHEMBL1909046

>  <bao_format>  (160) 
BAO_0000249

>  <data_validity_description>  (160) 
None

>  <activity_id>  (160) 
7738163

>  <standard_type>  (160) 
IC50

>  <target_chembl_id>  (160) 
CHEMBL1867

>  <data_validity_comment>  (160) 
None

>  <published_value>  (160) 
4.0827

>  <document_year>  (160) 
None

>  <target_pref_name>  (160) 
Alpha-2a adrenergic receptor

>  <assay_chembl_id>  (160) 
CHEMBL1909088

>  <standard_relation>  (160) 
=

>  <assay_description>  (160) 
DRUGMATRIX: Alpha-2A adrenergic receptor radioligand binding (ligand: MK-912)

>  <published_relation>  (160) 
=

>  <standard_value>  (160) 
4082.7

>  <qudt_units>  (160) 
http://www.openphacts.org/units/Nanomolar

>  <target_tax_id>  (160) 
9606

>  <bao_label>  (160) 
cell membrane format

>  <published_units>  (160) 
uM

>  <pchembl_value>  (160) 
5.39

>  <published_type>  (160) 
IC50

>  <activity_comment>  (160) 
None

$$$$

     RDKit          

 20 22  0  0  0  0  0  0  0  0999 V2000
    0.0000    0.0000    0.0000 C   0  0  0  0  0  0  0  0  0  0  0  0
    0.0000    0.0000    0.0000 N   0  0  0  0  0  0  0  0  0  0  0  0
    0.0000    0.0000    0.0000 C   0  0  0  0  0  0  0  0  0  0  0  0
    0.0000    0.0000    0.0000 C   0  0  0  0  0  0  0  0  0  0  0  0
    0.0000    0.0000    0.0000 C   0  0  0  0  0  0  0  0  0  0  0  0
    0.0000    0.0000    0.0000 C   0  0  0  0  0  0  0  0  0  0  0  0
    0.0000    0.0000    0.0000 C   0  0  0  0  0  0  0  0  0  0  0  0
    0.0000    0.0000    0.0000 C   0  0  0  0  0  0  0  0  0  0  0  0
    0.0000    0.0000    0.0000 C   0  0  0  0  0  0  0  0  0  0  0  0
    0.0000    0.0000    0.0000 C   0  0  0  0  0  0  0  0  0  0  0  0
    0.0000    0.0000    0.0000 C   0  0  0  0  0  0  0  0  0  0  0  0
    0.0000    0.0000    0.0000 C   0  0  0  0  0  0  0  0  0  0  0  0
    0.0000    0.0000    0.0000 C   0  0  0  0  0  0  0  0  0  0  0  0
    0.0000    0.0000    0.0000 C   0  0  0  0  0  0  0  0  0  0  0  0
    0.0000    0.0000    0.0000 C   0  0  0  0  0  0  0  0  0  0  0  0
    0.0000    0.0000    0.0000 C   0  0  0  0  0  0  0  0  0  0  0  0
    0.0000    0.0000    0.0000 C   0  0  0  0  0  0  0  0  0  0  0  0
    0.0000    0.0000    0.0000 C   0  0  0  0  0  0  0  0  0  0  0  0
    0.0000    0.0000    0.0000 C   0  0  0  0  0  0  0  0  0  0  0  0
    0.0000    0.0000    0.0000 C   0  0  0  0  0  0  0  0  0  0  0  0
  1  2  1  0
  2  3  1  0
  3  4  1  0
  4  5  1  0
  5  6  2  3
  6  7  1  0
  7  8  2  0
  8  9  1  0
  9 10  2  0
 10 11  1  0
 11 12  2  0
 12 13  1  0
 13 14  1  0
 14 15  1  0
 15 16  2  0
 16 17  1  0
 17 18  2  0
 18 19  1  0
 19 20  2  0
 20  6  1  0
 12  7  1  0
 20 15  1  0
M  END
>  <pIC50>  (161) 
6.14

>  <ChEMBL_ID>  (161) 
CHEMBL445

>  <document_journal>  (161) 
None

>  <bao_endpoint>  (161) 
BAO_0000190

>  <potential_duplicate>  (161) 
False

>  <uo_units>  (161) 
UO_0000065

>  <canonical_smiles>  (161) 
CNCCC=C1c2ccccc2CCc3ccccc13

>  <parent_molecule_chembl_id>  (161) 
CHEMBL445

>  <assay_type>  (161) 
B

>  <src_id>  (161) 
15

>  <ligand_efficiency>  (161) 
{u'le': u'0.42', u'bei': u'23.3', u'sei': u'51', u'lle': u'1.9'}

>  <standard_flag>  (161) 
True

>  <molecule_chembl_id>  (161) 
CHEMBL445

>  <target_organism>  (161) 
Homo sapiens

>  <standard_units>  (161) 
nM

>  <record_id>  (161) 
1540003

>  <document_chembl_id>  (161) 
CHEMBL1909046

>  <bao_format>  (161) 
BAO_0000249

>  <data_validity_description>  (161) 
None

>  <activity_id>  (161) 
7739997

>  <standard_type>  (161) 
IC50

>  <target_chembl_id>  (161) 
CHEMBL1867

>  <data_validity_comment>  (161) 
None

>  <published_value>  (161) 
0.732

>  <document_year>  (161) 
None

>  <target_pref_name>  (161) 
Alpha-2a adrenergic receptor

>  <assay_chembl_id>  (161) 
CHEMBL1909088

>  <standard_relation>  (161) 
=

>  <assay_description>  (161) 
DRUGMATRIX: Alpha-2A adrenergic receptor radioligand binding (ligand: MK-912)

>  <published_relation>  (161) 
=

>  <standard_value>  (161) 
732

>  <qudt_units>  (161) 
http://www.openphacts.org/units/Nanomolar

>  <target_tax_id>  (161) 
9606

>  <bao_label>  (161) 
cell membrane format

>  <published_units>  (161) 
uM

>  <pchembl_value>  (161) 
6.14

>  <published_type>  (161) 
IC50

>  <activity_comment>  (161) 
None

$$$$

     RDKit          

 27 30  0  0  0  0  0  0  0  0999 V2000
    0.0000    0.0000    0.0000 O   0  0  0  0  0  0  0  0  0  0  0  0
    0.0000    0.0000    0.0000 C   0  0  0  0  0  0  0  0  0  0  0  0
    0.0000    0.0000    0.0000 C   0  0  0  0  0  0  0  0  0  0  0  0
    0.0000    0.0000    0.0000 O   0  0  0  0  0  0  0  0  0  0  0  0
    0.0000    0.0000    0.0000 C   0  0  0  0  0  0  0  0  0  0  0  0
    0.0000    0.0000    0.0000 C   0  0  0  0  0  0  0  0  0  0  0  0
    0.0000    0.0000    0.0000 N   0  0  0  0  0  0  0  0  0  0  0  0
    0.0000    0.0000    0.0000 C   0  0  0  0  0  0  0  0  0  0  0  0
    0.0000    0.0000    0.0000 C   0  0  0  0  0  0  0  0  0  0  0  0
    0.0000    0.0000    0.0000 N   0  0  0  0  0  0  0  0  0  0  0  0
    0.0000    0.0000    0.0000 C   0  0  0  0  0  0  0  0  0  0  0  0
    0.0000    0.0000    0.0000 C   0  0  0  0  0  0  0  0  0  0  0  0
    0.0000    0.0000    0.0000 C   0  0  0  0  0  0  0  0  0  0  0  0
    0.0000    0.0000    0.0000 N   0  0  0  0  0  0  0  0  0  0  0  0
    0.0000    0.0000    0.0000 C   0  0  0  0  0  0  0  0  0  0  0  0
    0.0000    0.0000    0.0000 C   0  0  0  0  0  0  0  0  0  0  0  0
    0.0000    0.0000    0.0000 C   0  0  0  0  0  0  0  0  0  0  0  0
    0.0000    0.0000    0.0000 C   0  0  0  0  0  0  0  0  0  0  0  0
    0.0000    0.0000    0.0000 C   0  0  0  0  0  0  0  0  0  0  0  0
    0.0000    0.0000    0.0000 C   0  0  0  0  0  0  0  0  0  0  0  0
    0.0000    0.0000    0.0000 S   0  0  0  0  0  0  0  0  0  0  0  0
    0.0000    0.0000    0.0000 C   0  0  0  0  0  0  0  0  0  0  0  0
    0.0000    0.0000    0.0000 C   0  0  0  0  0  0  0  0  0  0  0  0
    0.0000    0.0000    0.0000 C   0  0  0  0  0  0  0  0  0  0  0  0
    0.0000    0.0000    0.0000 C   0  0  0  0  0  0  0  0  0  0  0  0
    0.0000    0.0000    0.0000 C   0  0  0  0  0  0  0  0  0  0  0  0
    0.0000    0.0000    0.0000 C   0  0  0  0  0  0  0  0  0  0  0  0
  1  2  1  0
  2  3  1  0
  3  4  1  0
  4  5  1  0
  5  6  1  0
  6  7  1  0
  7  8  1  0
  8  9  1  0
  9 10  1  0
 10 11  1  0
 11 12  1  0
 10 13  1  0
 13 14  2  0
 14 15  1  0
 15 16  2  0
 16 17  1  0
 17 18  2  0
 18 19  1  0
 19 20  2  0
 20 21  1  0
 21 22  1  0
 22 23  2  0
 23 24  1  0
 24 25  2  0
 25 26  1  0
 26 27  2  0
 12  7  1  0
 27 13  1  0
 20 15  1  0
 27 22  1  0
M  END
>  <pIC50>  (162) 
5.6

>  <ChEMBL_ID>  (162) 
CHEMBL716

>  <document_journal>  (162) 
None

>  <bao_endpoint>  (162) 
BAO_0000190

>  <potential_duplicate>  (162) 
False

>  <uo_units>  (162) 
UO_0000065

>  <canonical_smiles>  (162) 
OCCOCCN1CCN(CC1)C2=Nc3ccccc3Sc4ccccc24

>  <parent_molecule_chembl_id>  (162) 
CHEMBL716

>  <assay_type>  (162) 
B

>  <src_id>  (162) 
15

>  <ligand_efficiency>  (162) 
{u'le': u'0.28', u'bei': u'14.61', u'sei': u'7.61', u'lle': u'2.94'}

>  <standard_flag>  (162) 
True

>  <molecule_chembl_id>  (162) 
CHEMBL716

>  <target_organism>  (162) 
Homo sapiens

>  <standard_units>  (162) 
nM

>  <record_id>  (162) 
1540100

>  <document_chembl_id>  (162) 
CHEMBL1909046

>  <bao_format>  (162) 
BAO_0000249

>  <data_validity_description>  (162) 
None

>  <activity_id>  (162) 
7741611

>  <standard_type>  (162) 
IC50

>  <target_chembl_id>  (162) 
CHEMBL1867

>  <data_validity_comment>  (162) 
None

>  <published_value>  (162) 
2.4914

>  <document_year>  (162) 
None

>  <target_pref_name>  (162) 
Alpha-2a adrenergic receptor

>  <assay_chembl_id>  (162) 
CHEMBL1909088

>  <standard_relation>  (162) 
=

>  <assay_description>  (162) 
DRUGMATRIX: Alpha-2A adrenergic receptor radioligand binding (ligand: MK-912)

>  <published_relation>  (162) 
=

>  <standard_value>  (162) 
2491.4

>  <qudt_units>  (162) 
http://www.openphacts.org/units/Nanomolar

>  <target_tax_id>  (162) 
9606

>  <bao_label>  (162) 
cell membrane format

>  <published_units>  (162) 
uM

>  <pchembl_value>  (162) 
5.6

>  <published_type>  (162) 
IC50

>  <activity_comment>  (162) 
None

$$$$

     RDKit          

 25 28  0  0  0  0  0  0  0  0999 V2000
    0.0000    0.0000    0.0000 C   0  0  0  0  0  0  0  0  0  0  0  0
    0.0000    0.0000    0.0000 N   0  0  0  0  0  0  0  0  0  0  0  0
    0.0000    0.0000    0.0000 C   0  0  0  0  0  0  0  0  0  0  0  0
    0.0000    0.0000    0.0000 C   0  0  0  0  0  0  0  0  0  0  0  0
    0.0000    0.0000    0.0000 N   0  0  0  0  0  0  0  0  0  0  0  0
    0.0000    0.0000    0.0000 C   0  0  0  0  0  0  0  0  0  0  0  0
    0.0000    0.0000    0.0000 C   0  0  0  0  0  0  0  0  0  0  0  0
    0.0000    0.0000    0.0000 C   0  0  0  0  0  0  0  0  0  0  0  0
    0.0000    0.0000    0.0000 N   0  0  0  0  0  0  0  0  0  0  0  0
    0.0000    0.0000    0.0000 C   0  0  0  0  0  0  0  0  0  0  0  0
    0.0000    0.0000    0.0000 C   0  0  0  0  0  0  0  0  0  0  0  0
    0.0000    0.0000    0.0000 C   0  0  0  0  0  0  0  0  0  0  0  0
    0.0000    0.0000    0.0000 C   0  0  0  0  0  0  0  0  0  0  0  0
    0.0000    0.0000    0.0000 C   0  0  0  0  0  0  0  0  0  0  0  0
    0.0000    0.0000    0.0000 C   0  0  0  0  0  0  0  0  0  0  0  0
    0.0000    0.0000    0.0000 S   0  0  0  0  0  0  0  0  0  0  0  0
    0.0000    0.0000    0.0000 C   0  0  0  0  0  0  0  0  0  0  0  0
    0.0000    0.0000    0.0000 C   0  0  0  0  0  0  0  0  0  0  0  0
    0.0000    0.0000    0.0000 C   0  0  0  0  0  0  0  0  0  0  0  0
    0.0000    0.0000    0.0000 C   0  0  0  0  0  0  0  0  0  0  0  0
    0.0000    0.0000    0.0000 Cl  0  0  0  0  0  0  0  0  0  0  0  0
    0.0000    0.0000    0.0000 C   0  0  0  0  0  0  0  0  0  0  0  0
    0.0000    0.0000    0.0000 C   0  0  0  0  0  0  0  0  0  0  0  0
    0.0000    0.0000    0.0000 C   0  0  0  0  0  0  0  0  0  0  0  0
    0.0000    0.0000    0.0000 C   0  0  0  0  0  0  0  0  0  0  0  0
  1  2  1  0
  2  3  1  0
  3  4  1  0
  4  5  1  0
  5  6  1  0
  6  7  1  0
  7  8  1  0
  8  9  1  0
  9 10  1  0
 10 11  2  0
 11 12  1  0
 12 13  2  0
 13 14  1  0
 14 15  2  0
 15 16  1  0
 16 17  1  0
 17 18  2  0
 18 19  1  0
 19 20  2  0
 20 21  1  0
 20 22  1  0
 22 23  2  0
  5 24  1  0
 24 25  1  0
 25  2  1  0
 23  9  1  0
 15 10  1  0
 23 17  1  0
M  END
>  <pIC50>  (163) 
6.77

>  <ChEMBL_ID>  (163) 
CHEMBL728

>  <document_journal>  (163) 
None

>  <bao_endpoint>  (163) 
BAO_0000190

>  <potential_duplicate>  (163) 
False

>  <uo_units>  (163) 
UO_0000065

>  <canonical_smiles>  (163) 
CN1CCN(CCCN2c3ccccc3Sc4ccc(Cl)cc24)CC1

>  <parent_molecule_chembl_id>  (163) 
CHEMBL728

>  <assay_type>  (163) 
B

>  <src_id>  (163) 
15

>  <ligand_efficiency>  (163) 
{u'le': u'0.37', u'bei': u'18.11', u'sei': u'19.34', u'lle': u'2.07'}

>  <standard_flag>  (163) 
True

>  <molecule_chembl_id>  (163) 
CHEMBL728

>  <target_organism>  (163) 
Homo sapiens

>  <standard_units>  (163) 
nM

>  <record_id>  (163) 
1540084

>  <document_chembl_id>  (163) 
CHEMBL1909046

>  <bao_format>  (163) 
BAO_0000249

>  <data_validity_description>  (163) 
None

>  <activity_id>  (163) 
7743535

>  <standard_type>  (163) 
IC50

>  <target_chembl_id>  (163) 
CHEMBL1867

>  <data_validity_comment>  (163) 
None

>  <published_value>  (163) 
0.169

>  <document_year>  (163) 
None

>  <target_pref_name>  (163) 
Alpha-2a adrenergic receptor

>  <assay_chembl_id>  (163) 
CHEMBL1909088

>  <standard_relation>  (163) 
=

>  <assay_description>  (163) 
DRUGMATRIX: Alpha-2A adrenergic receptor radioligand binding (ligand: MK-912)

>  <published_relation>  (163) 
=

>  <standard_value>  (163) 
169

>  <qudt_units>  (163) 
http://www.openphacts.org/units/Nanomolar

>  <target_tax_id>  (163) 
9606

>  <bao_label>  (163) 
cell membrane format

>  <published_units>  (163) 
uM

>  <pchembl_value>  (163) 
6.77

>  <published_type>  (163) 
IC50

>  <activity_comment>  (163) 
None

$$$$

     RDKit          

 28 30  0  0  0  0  0  0  0  0999 V2000
    0.0000    0.0000    0.0000 C   0  0  0  0  0  0  0  0  0  0  0  0
    0.0000    0.0000    0.0000 C   0  0  0  0  0  0  0  0  0  0  0  0
    0.0000    0.0000    0.0000 N   0  0  0  0  0  0  0  0  0  0  0  0
    0.0000    0.0000    0.0000 C   0  0  0  0  0  0  0  0  0  0  0  0
    0.0000    0.0000    0.0000 C   0  0  0  0  0  0  0  0  0  0  0  0
    0.0000    0.0000    0.0000 C   0  0  0  0  0  0  0  0  0  0  0  0
    0.0000    0.0000    0.0000 C   0  0  0  0  0  0  0  0  0  0  0  0
    0.0000    0.0000    0.0000 C   0  0  0  0  0  0  0  0  0  0  0  0
    0.0000    0.0000    0.0000 C   0  0  0  0  0  0  0  0  0  0  0  0
    0.0000    0.0000    0.0000 C   0  0  0  0  0  0  0  0  0  0  0  0
    0.0000    0.0000    0.0000 N   0  0  0  0  0  0  0  0  0  0  0  0
    0.0000    0.0000    0.0000 C   0  0  0  0  0  0  0  0  0  0  0  0
    0.0000    0.0000    0.0000 C   0  0  0  0  0  0  0  0  0  0  0  0
    0.0000    0.0000    0.0000 C   0  0  0  0  0  0  0  0  0  0  0  0
    0.0000    0.0000    0.0000 C   0  0  0  0  0  0  0  0  0  0  0  0
    0.0000    0.0000    0.0000 C   0  0  0  0  0  0  0  0  0  0  0  0
    0.0000    0.0000    0.0000 Cl  0  0  0  0  0  0  0  0  0  0  0  0
    0.0000    0.0000    0.0000 C   0  0  0  0  0  0  0  0  0  0  0  0
    0.0000    0.0000    0.0000 C   0  0  0  0  0  0  0  0  0  0  0  0
    0.0000    0.0000    0.0000 N   0  0  0  0  0  0  0  0  0  0  0  0
    0.0000    0.0000    0.0000 C   0  0  0  0  0  0  0  0  0  0  0  0
    0.0000    0.0000    0.0000 C   0  0  0  0  0  0  0  0  0  0  0  0
    0.0000    0.0000    0.0000 C   0  0  0  0  0  0  0  0  0  0  0  0
    0.0000    0.0000    0.0000 C   0  0  0  0  0  0  0  0  0  0  0  0
    0.0000    0.0000    0.0000 O   0  0  0  0  0  0  0  0  0  0  0  0
    0.0000    0.0000    0.0000 C   0  0  0  0  0  0  0  0  0  0  0  0
    0.0000    0.0000    0.0000 C   0  0  0  0  0  0  0  0  0  0  0  0
    0.0000    0.0000    0.0000 C   0  0  0  0  0  0  0  0  0  0  0  0
  1  2  1  0
  2  3  1  0
  3  4  1  0
  4  5  1  0
  3  6  1  0
  6  7  1  0
  7  8  1  0
  8  9  1  0
  9 10  1  0
  9 11  1  0
 11 12  1  0
 12 13  2  0
 13 14  1  0
 14 15  2  0
 15 16  1  0
 16 17  1  0
 16 18  2  0
 18 19  1  0
 19 20  2  0
 20 21  1  0
 21 22  2  0
 22 23  1  0
 23 24  2  0
 24 25  1  0
 25 26  1  0
 24 27  1  0
 27 28  2  0
 28 12  1  0
 19 13  1  0
 28 21  1  0
M  END
>  <pIC50>  (164) 
5.64

>  <ChEMBL_ID>  (164) 
CHEMBL7568

>  <document_journal>  (164) 
None

>  <bao_endpoint>  (164) 
BAO_0000190

>  <potential_duplicate>  (164) 
False

>  <uo_units>  (164) 
UO_0000065

>  <canonical_smiles>  (164) 
CCN(CC)CCCC(C)Nc1c2ccc(Cl)cc2nc3ccc(OC)cc13

>  <parent_molecule_chembl_id>  (164) 
CHEMBL7568

>  <assay_type>  (164) 
B

>  <src_id>  (164) 
15

>  <ligand_efficiency>  (164) 
{u'le': u'0.28', u'bei': u'14.11', u'sei': u'15.09', u'lle': u'-0.03'}

>  <standard_flag>  (164) 
True

>  <molecule_chembl_id>  (164) 
CHEMBL7568

>  <target_organism>  (164) 
Homo sapiens

>  <standard_units>  (164) 
nM

>  <record_id>  (164) 
1540101

>  <document_chembl_id>  (164) 
CHEMBL1909046

>  <bao_format>  (164) 
BAO_0000249

>  <data_validity_description>  (164) 
None

>  <activity_id>  (164) 
7743916

>  <standard_type>  (164) 
IC50

>  <target_chembl_id>  (164) 
CHEMBL1867

>  <data_validity_comment>  (164) 
None

>  <published_value>  (164) 
2.28

>  <document_year>  (164) 
None

>  <target_pref_name>  (164) 
Alpha-2a adrenergic receptor

>  <assay_chembl_id>  (164) 
CHEMBL1909088

>  <standard_relation>  (164) 
=

>  <assay_description>  (164) 
DRUGMATRIX: Alpha-2A adrenergic receptor radioligand binding (ligand: MK-912)

>  <published_relation>  (164) 
=

>  <standard_value>  (164) 
2280

>  <qudt_units>  (164) 
http://www.openphacts.org/units/Nanomolar

>  <target_tax_id>  (164) 
9606

>  <bao_label>  (164) 
cell membrane format

>  <published_units>  (164) 
uM

>  <pchembl_value>  (164) 
5.64

>  <published_type>  (164) 
IC50

>  <activity_comment>  (164) 
None

$$$$

     RDKit          

 20 21  0  0  0  0  0  0  0  0999 V2000
    0.0000    0.0000    0.0000 C   0  0  0  0  0  0  0  0  0  0  0  0
    0.0000    0.0000    0.0000 N   0  0  0  0  0  0  0  0  0  0  0  0
    0.0000    0.0000    0.0000 C   0  0  0  0  0  0  0  0  0  0  0  0
    0.0000    0.0000    0.0000 C   0  0  0  0  0  0  0  0  0  0  0  0
    0.0000    0.0000    0.0000 C   0  0  0  0  0  0  0  0  0  0  0  0
    0.0000    0.0000    0.0000 O   0  0  0  0  0  0  0  0  0  0  0  0
    0.0000    0.0000    0.0000 C   0  0  0  0  0  0  0  0  0  0  0  0
    0.0000    0.0000    0.0000 C   0  0  0  0  0  0  0  0  0  0  0  0
    0.0000    0.0000    0.0000 C   0  0  0  0  0  0  0  0  0  0  0  0
    0.0000    0.0000    0.0000 C   0  0  0  0  0  0  0  0  0  0  0  0
    0.0000    0.0000    0.0000 C   0  0  0  0  0  0  0  0  0  0  0  0
    0.0000    0.0000    0.0000 C   0  0  0  0  0  0  0  0  0  0  0  0
    0.0000    0.0000    0.0000 C   0  0  0  0  0  0  0  0  0  0  0  0
    0.0000    0.0000    0.0000 C   0  0  0  0  0  0  0  0  0  0  0  0
    0.0000    0.0000    0.0000 C   0  0  0  0  0  0  0  0  0  0  0  0
    0.0000    0.0000    0.0000 C   0  0  0  0  0  0  0  0  0  0  0  0
    0.0000    0.0000    0.0000 C   0  0  0  0  0  0  0  0  0  0  0  0
    0.0000    0.0000    0.0000 C   0  0  0  0  0  0  0  0  0  0  0  0
    0.0000    0.0000    0.0000 C   0  0  0  0  0  0  0  0  0  0  0  0
    0.0000    0.0000    0.0000 C   0  0  0  0  0  0  0  0  0  0  0  0
  1  2  1  0
  2  3  1  0
  2  4  1  0
  4  5  1  0
  5  6  1  0
  6  7  1  0
  7  8  1  0
  8  9  2  0
  9 10  1  0
 10 11  2  0
 11 12  1  0
 12 13  2  0
  7 14  1  0
 14 15  2  0
 15 16  1  0
 16 17  2  0
 17 18  1  0
 18 19  2  0
 19 20  1  0
 13  8  1  0
 19 14  1  0
M  END
>  <pIC50>  (165) 
5.67

>  <ChEMBL_ID>  (165) 
CHEMBL900

>  <document_journal>  (165) 
None

>  <bao_endpoint>  (165) 
BAO_0000190

>  <potential_duplicate>  (165) 
False

>  <uo_units>  (165) 
UO_0000065

>  <canonical_smiles>  (165) 
CN(C)CCOC(c1ccccc1)c2ccccc2C

>  <parent_molecule_chembl_id>  (165) 
CHEMBL900

>  <assay_type>  (165) 
B

>  <src_id>  (165) 
15

>  <ligand_efficiency>  (165) 
{u'le': u'0.39', u'bei': u'21.03', u'sei': u'45.44', u'lle': u'1.8'}

>  <standard_flag>  (165) 
True

>  <molecule_chembl_id>  (165) 
CHEMBL900

>  <target_organism>  (165) 
Homo sapiens

>  <standard_units>  (165) 
nM

>  <record_id>  (165) 
1540013

>  <document_chembl_id>  (165) 
CHEMBL1909046

>  <bao_format>  (165) 
BAO_0000249

>  <data_validity_description>  (165) 
None

>  <activity_id>  (165) 
7746716

>  <standard_type>  (165) 
IC50

>  <target_chembl_id>  (165) 
CHEMBL1867

>  <data_validity_comment>  (165) 
None

>  <published_value>  (165) 
2.156

>  <document_year>  (165) 
None

>  <target_pref_name>  (165) 
Alpha-2a adrenergic receptor

>  <assay_chembl_id>  (165) 
CHEMBL1909088

>  <standard_relation>  (165) 
=

>  <assay_description>  (165) 
DRUGMATRIX: Alpha-2A adrenergic receptor radioligand binding (ligand: MK-912)

>  <published_relation>  (165) 
=

>  <standard_value>  (165) 
2156

>  <qudt_units>  (165) 
http://www.openphacts.org/units/Nanomolar

>  <target_tax_id>  (165) 
9606

>  <bao_label>  (165) 
cell membrane format

>  <published_units>  (165) 
uM

>  <pchembl_value>  (165) 
5.67

>  <published_type>  (165) 
IC50

>  <activity_comment>  (165) 
None

$$$$

     RDKit          

 21 24  0  0  0  0  0  0  0  0999 V2000
    0.0000    0.0000    0.0000 C   0  0  0  0  0  0  0  0  0  0  0  0
    0.0000    0.0000    0.0000 N   0  0  0  0  0  0  0  0  0  0  0  0
    0.0000    0.0000    0.0000 C   0  0  0  0  0  0  0  0  0  0  0  0
    0.0000    0.0000    0.0000 C   0  0  0  0  0  0  0  0  0  0  0  0
    0.0000    0.0000    0.0000 C   0  0  0  0  0  0  0  0  0  0  0  0
    0.0000    0.0000    0.0000 C   0  0  0  0  0  0  0  0  0  0  0  0
    0.0000    0.0000    0.0000 C   0  0  0  0  0  0  0  0  0  0  0  0
    0.0000    0.0000    0.0000 C   0  0  0  0  0  0  0  0  0  0  0  0
    0.0000    0.0000    0.0000 C   0  0  0  0  0  0  0  0  0  0  0  0
    0.0000    0.0000    0.0000 C   0  0  0  0  0  0  0  0  0  0  0  0
    0.0000    0.0000    0.0000 C   0  0  0  0  0  0  0  0  0  0  0  0
    0.0000    0.0000    0.0000 C   0  0  0  0  0  0  0  0  0  0  0  0
    0.0000    0.0000    0.0000 C   0  0  0  0  0  0  0  0  0  0  0  0
    0.0000    0.0000    0.0000 C   0  0  0  0  0  0  0  0  0  0  0  0
    0.0000    0.0000    0.0000 C   0  0  0  0  0  0  0  0  0  0  0  0
    0.0000    0.0000    0.0000 C   0  0  0  0  0  0  0  0  0  0  0  0
    0.0000    0.0000    0.0000 C   0  0  0  0  0  0  0  0  0  0  0  0
    0.0000    0.0000    0.0000 C   0  0  0  0  0  0  0  0  0  0  0  0
    0.0000    0.0000    0.0000 C   0  0  0  0  0  0  0  0  0  0  0  0
    0.0000    0.0000    0.0000 C   0  0  0  0  0  0  0  0  0  0  0  0
    0.0000    0.0000    0.0000 C   0  0  0  0  0  0  0  0  0  0  0  0
  1  2  1  0
  2  3  1  0
  3  4  1  0
  4  5  1  0
  5  6  1  0
  6  7  1  0
  7  8  1  0
  8  9  1  0
  9 10  1  0
 10 11  2  0
 11 12  1  0
 12 13  2  0
 13 14  1  0
 14 15  2  0
  9 16  1  0
 16 17  2  0
 17 18  1  0
 18 19  2  0
 19 20  1  0
 20 21  2  0
 15  6  1  0
 21  6  1  0
 15 10  1  0
 21 16  1  0
M  END
>  <pIC50>  (166) 
5.74

>  <ChEMBL_ID>  (166) 
CHEMBL21731

>  <document_journal>  (166) 
None

>  <bao_endpoint>  (166) 
BAO_0000190

>  <potential_duplicate>  (166) 
False

>  <uo_units>  (166) 
UO_0000065

>  <canonical_smiles>  (166) 
CNCCCC12CCC(c3ccccc13)c4ccccc24

>  <parent_molecule_chembl_id>  (166) 
CHEMBL21731

>  <assay_type>  (166) 
B

>  <src_id>  (166) 
15

>  <ligand_efficiency>  (166) 
{u'le': u'0.37', u'bei': u'20.69', u'sei': u'47.71', u'lle': u'1.62'}

>  <standard_flag>  (166) 
True

>  <molecule_chembl_id>  (166) 
CHEMBL21731

>  <target_organism>  (166) 
Homo sapiens

>  <standard_units>  (166) 
nM

>  <record_id>  (166) 
1539908

>  <document_chembl_id>  (166) 
CHEMBL1909046

>  <bao_format>  (166) 
BAO_0000249

>  <data_validity_description>  (166) 
None

>  <activity_id>  (166) 
7746995

>  <standard_type>  (166) 
IC50

>  <target_chembl_id>  (166) 
CHEMBL1867

>  <data_validity_comment>  (166) 
None

>  <published_value>  (166) 
1.824

>  <document_year>  (166) 
None

>  <target_pref_name>  (166) 
Alpha-2a adrenergic receptor

>  <assay_chembl_id>  (166) 
CHEMBL1909088

>  <standard_relation>  (166) 
=

>  <assay_description>  (166) 
DRUGMATRIX: Alpha-2A adrenergic receptor radioligand binding (ligand: MK-912)

>  <published_relation>  (166) 
=

>  <standard_value>  (166) 
1824

>  <qudt_units>  (166) 
http://www.openphacts.org/units/Nanomolar

>  <target_tax_id>  (166) 
9606

>  <bao_label>  (166) 
cell membrane format

>  <published_units>  (166) 
uM

>  <pchembl_value>  (166) 
5.74

>  <published_type>  (166) 
IC50

>  <activity_comment>  (166) 
None

$$$$

     RDKit          

 20 20  0  0  0  0  0  0  0  0999 V2000
    0.0000    0.0000    0.0000 C   0  0  0  0  0  0  0  0  0  0  0  0
    0.0000    0.0000    0.0000 C   0  0  0  0  0  0  0  0  0  0  0  0
    0.0000    0.0000    0.0000 N   0  0  0  0  0  0  0  0  0  0  0  0
    0.0000    0.0000    0.0000 C   0  0  0  0  0  0  0  0  0  0  0  0
    0.0000    0.0000    0.0000 C   0  0  0  0  0  0  0  0  0  0  0  0
    0.0000    0.0000    0.0000 C   0  0  0  0  0  0  0  0  0  0  0  0
    0.0000    0.0000    0.0000 C   0  0  0  0  0  0  0  0  0  0  0  0
    0.0000    0.0000    0.0000 N   0  0  0  0  0  0  0  0  0  0  0  0
    0.0000    0.0000    0.0000 C   0  0  0  0  0  0  0  0  0  0  0  0
    0.0000    0.0000    0.0000 O   0  0  0  0  0  0  0  0  0  0  0  0
    0.0000    0.0000    0.0000 C   0  0  0  0  0  0  0  0  0  0  0  0
    0.0000    0.0000    0.0000 C   0  0  0  0  0  0  0  0  0  0  0  0
    0.0000    0.0000    0.0000 C   0  0  0  0  0  0  0  0  0  0  0  0
    0.0000    0.0000    0.0000 Cl  0  0  0  0  0  0  0  0  0  0  0  0
    0.0000    0.0000    0.0000 C   0  0  0  0  0  0  0  0  0  0  0  0
    0.0000    0.0000    0.0000 N   0  0  0  0  0  0  0  0  0  0  0  0
    0.0000    0.0000    0.0000 C   0  0  0  0  0  0  0  0  0  0  0  0
    0.0000    0.0000    0.0000 C   0  0  0  0  0  0  0  0  0  0  0  0
    0.0000    0.0000    0.0000 O   0  0  0  0  0  0  0  0  0  0  0  0
    0.0000    0.0000    0.0000 C   0  0  0  0  0  0  0  0  0  0  0  0
  1  2  1  0
  2  3  1  0
  3  4  1  0
  4  5  1  0
  3  6  1  0
  6  7  1  0
  7  8  1  0
  8  9  1  0
  9 10  2  0
  9 11  1  0
 11 12  2  0
 12 13  1  0
 13 14  1  0
 13 15  2  0
 15 16  1  0
 15 17  1  0
 17 18  2  0
 18 19  1  0
 19 20  1  0
 18 11  1  0
M  END
>  <pIC50>  (167) 
5.57

>  <ChEMBL_ID>  (167) 
CHEMBL86

>  <document_journal>  (167) 
None

>  <bao_endpoint>  (167) 
BAO_0000190

>  <potential_duplicate>  (167) 
False

>  <uo_units>  (167) 
UO_0000065

>  <canonical_smiles>  (167) 
CCN(CC)CCNC(=O)c1cc(Cl)c(N)cc1OC

>  <parent_molecule_chembl_id>  (167) 
CHEMBL86

>  <assay_type>  (167) 
B

>  <src_id>  (167) 
15

>  <ligand_efficiency>  (167) 
{u'le': u'0.38', u'bei': u'18.56', u'sei': u'8.23', u'lle': u'3.79'}

>  <standard_flag>  (167) 
True

>  <molecule_chembl_id>  (167) 
CHEMBL86

>  <target_organism>  (167) 
Homo sapiens

>  <standard_units>  (167) 
nM

>  <record_id>  (167) 
1539941

>  <document_chembl_id>  (167) 
CHEMBL1909046

>  <bao_format>  (167) 
BAO_0000249

>  <data_validity_description>  (167) 
None

>  <activity_id>  (167) 
7749679

>  <standard_type>  (167) 
IC50

>  <target_chembl_id>  (167) 
CHEMBL1867

>  <data_validity_comment>  (167) 
None

>  <published_value>  (167) 
2.721

>  <document_year>  (167) 
None

>  <target_pref_name>  (167) 
Alpha-2a adrenergic receptor

>  <assay_chembl_id>  (167) 
CHEMBL1909088

>  <standard_relation>  (167) 
=

>  <assay_description>  (167) 
DRUGMATRIX: Alpha-2A adrenergic receptor radioligand binding (ligand: MK-912)

>  <published_relation>  (167) 
=

>  <standard_value>  (167) 
2721

>  <qudt_units>  (167) 
http://www.openphacts.org/units/Nanomolar

>  <target_tax_id>  (167) 
9606

>  <bao_label>  (167) 
cell membrane format

>  <published_units>  (167) 
uM

>  <pchembl_value>  (167) 
5.57

>  <published_type>  (167) 
IC50

>  <activity_comment>  (167) 
None

$$$$

     RDKit          

 25 27  0  0  0  0  0  0  0  0999 V2000
    0.0000    0.0000    0.0000 Cl  0  0  0  0  0  0  0  0  0  0  0  0
    0.0000    0.0000    0.0000 C   0  0  0  0  0  0  0  0  0  0  0  0
    0.0000    0.0000    0.0000 C   0  0  0  0  0  0  0  0  0  0  0  0
    0.0000    0.0000    0.0000 C   0  0  0  0  0  0  0  0  0  0  0  0
    0.0000    0.0000    0.0000 C   0  0  0  0  0  0  0  0  0  0  0  0
    0.0000    0.0000    0.0000 C   0  0  0  0  0  0  0  0  0  0  0  0
    0.0000    0.0000    0.0000 O   0  0  0  0  0  0  0  0  0  0  0  0
    0.0000    0.0000    0.0000 C   0  0  0  0  0  0  0  0  0  0  0  0
    0.0000    0.0000    0.0000 C   0  0  0  0  0  0  0  0  0  0  0  0
    0.0000    0.0000    0.0000 N   0  0  0  0  0  0  0  0  0  0  0  0
    0.0000    0.0000    0.0000 C   0  0  0  0  0  0  0  0  0  0  0  0
    0.0000    0.0000    0.0000 C   0  0  0  0  0  0  0  0  0  0  0  0
    0.0000    0.0000    0.0000 N   0  0  0  0  0  0  0  0  0  0  0  0
    0.0000    0.0000    0.0000 C   0  0  0  0  0  0  0  0  0  0  0  0
    0.0000    0.0000    0.0000 C   0  0  0  0  0  0  0  0  0  0  0  0
    0.0000    0.0000    0.0000 C   0  0  0  0  0  0  0  0  0  0  0  0
    0.0000    0.0000    0.0000 C   0  0  0  0  0  0  0  0  0  0  0  0
    0.0000    0.0000    0.0000 C   0  0  0  0  0  0  0  0  0  0  0  0
    0.0000    0.0000    0.0000 Cl  0  0  0  0  0  0  0  0  0  0  0  0
    0.0000    0.0000    0.0000 C   0  0  0  0  0  0  0  0  0  0  0  0
    0.0000    0.0000    0.0000 C   0  0  0  0  0  0  0  0  0  0  0  0
    0.0000    0.0000    0.0000 Cl  0  0  0  0  0  0  0  0  0  0  0  0
    0.0000    0.0000    0.0000 C   0  0  0  0  0  0  0  0  0  0  0  0
    0.0000    0.0000    0.0000 Cl  0  0  0  0  0  0  0  0  0  0  0  0
    0.0000    0.0000    0.0000 C   0  0  0  0  0  0  0  0  0  0  0  0
  1  2  1  0
  2  3  2  0
  3  4  1  0
  4  5  2  0
  5  6  1  0
  6  7  1  0
  7  8  1  0
  8  9  1  0
  9 10  1  0
 10 11  1  0
 11 12  2  0
 12 13  1  0
 13 14  2  0
  8 15  1  0
 15 16  2  0
 16 17  1  0
 17 18  2  0
 18 19  1  0
 18 20  1  0
 20 21  2  0
 21 22  1  0
  5 23  1  0
 23 24  1  0
 23 25  2  0
 25  2  1  0
 14 10  1  0
 21 15  1  0
M  END
>  <pIC50>  (168) 
5.4

>  <ChEMBL_ID>  (168) 
CHEMBL91

>  <document_journal>  (168) 
None

>  <bao_endpoint>  (168) 
BAO_0000190

>  <potential_duplicate>  (168) 
False

>  <uo_units>  (168) 
UO_0000065

>  <canonical_smiles>  (168) 
Clc1ccc(COC(Cn2ccnc2)c3ccc(Cl)cc3Cl)c(Cl)c1

>  <parent_molecule_chembl_id>  (168) 
CHEMBL91

>  <assay_type>  (168) 
B

>  <src_id>  (168) 
15

>  <ligand_efficiency>  (168) 
{u'le': u'0.3', u'bei': u'12.98', u'sei': u'19.97', u'lle': u'-0.25'}

>  <standard_flag>  (168) 
True

>  <molecule_chembl_id>  (168) 
CHEMBL91

>  <target_organism>  (168) 
Homo sapiens

>  <standard_units>  (168) 
nM

>  <record_id>  (168) 
1539950

>  <document_chembl_id>  (168) 
CHEMBL1909046

>  <bao_format>  (168) 
BAO_0000249

>  <data_validity_description>  (168) 
None

>  <activity_id>  (168) 
7754085

>  <standard_type>  (168) 
IC50

>  <target_chembl_id>  (168) 
CHEMBL1867

>  <data_validity_comment>  (168) 
None

>  <published_value>  (168) 
3.966

>  <document_year>  (168) 
None

>  <target_pref_name>  (168) 
Alpha-2a adrenergic receptor

>  <assay_chembl_id>  (168) 
CHEMBL1909088

>  <standard_relation>  (168) 
=

>  <assay_description>  (168) 
DRUGMATRIX: Alpha-2A adrenergic receptor radioligand binding (ligand: MK-912)

>  <published_relation>  (168) 
=

>  <standard_value>  (168) 
3966

>  <qudt_units>  (168) 
http://www.openphacts.org/units/Nanomolar

>  <target_tax_id>  (168) 
9606

>  <bao_label>  (168) 
cell membrane format

>  <published_units>  (168) 
uM

>  <pchembl_value>  (168) 
5.4

>  <published_type>  (168) 
IC50

>  <activity_comment>  (168) 
None

$$$$

     RDKit          

 37 37  0  0  0  0  0  0  0  0999 V2000
    0.0000    0.0000    0.0000 C   0  0  0  0  0  0  0  0  0  0  0  0
    0.0000    0.0000    0.0000 C   0  0  0  0  0  0  0  0  0  0  0  0
    0.0000    0.0000    0.0000 C   0  0  0  0  0  0  0  0  0  0  0  0
    0.0000    0.0000    0.0000 C   0  0  0  0  0  0  0  0  0  0  0  0
    0.0000    0.0000    0.0000 C   0  0  0  0  0  0  0  0  0  0  0  0
    0.0000    0.0000    0.0000 C   0  0  0  0  0  0  0  0  0  0  0  0
    0.0000    0.0000    0.0000 O   0  0  0  0  0  0  0  0  0  0  0  0
    0.0000    0.0000    0.0000 C   0  0  0  0  0  0  0  0  0  0  0  0
    0.0000    0.0000    0.0000 C   0  0  0  0  0  0  0  0  0  0  0  0
    0.0000    0.0000    0.0000 C   0  0  0  0  0  0  0  0  0  0  0  0
    0.0000    0.0000    0.0000 C   0  0  0  0  0  0  0  0  0  0  0  0
    0.0000    0.0000    0.0000 C   0  0  0  0  0  0  0  0  0  0  0  0
    0.0000    0.0000    0.0000 C   0  0  0  0  0  0  0  0  0  0  0  0
    0.0000    0.0000    0.0000 C   0  0  0  0  0  0  0  0  0  0  0  0
    0.0000    0.0000    0.0000 C   0  0  0  0  0  0  0  0  0  0  0  0
    0.0000    0.0000    0.0000 C   0  0  0  0  0  0  0  0  0  0  0  0
    0.0000    0.0000    0.0000 O   0  0  0  0  0  0  0  0  0  0  0  0
    0.0000    0.0000    0.0000 N   0  0  0  0  0  0  0  0  0  0  0  0
    0.0000    0.0000    0.0000 C   0  0  0  0  0  0  0  0  0  0  0  0
    0.0000    0.0000    0.0000 C   0  0  0  0  0  0  0  0  0  0  0  0
    0.0000    0.0000    0.0000 C   0  0  0  0  0  0  0  0  0  0  0  0
    0.0000    0.0000    0.0000 S   0  0  0  0  0  0  0  0  0  0  0  0
    0.0000    0.0000    0.0000 O   0  0  0  0  0  0  0  0  0  0  0  0
    0.0000    0.0000    0.0000 O   0  0  0  0  0  0  0  0  0  0  0  0
    0.0000    0.0000    0.0000 C   0  0  0  0  0  0  0  0  0  0  0  0
    0.0000    0.0000    0.0000 C   0  0  0  0  0  0  0  0  0  0  0  0
    0.0000    0.0000    0.0000 O   0  0  0  0  0  0  0  0  0  0  0  0
    0.0000    0.0000    0.0000 O   0  0  0  0  0  0  0  0  0  0  0  0
    0.0000    0.0000    0.0000 C   0  0  0  0  0  0  0  0  0  0  0  0
    0.0000    0.0000    0.0000 C   0  0  0  0  0  0  0  0  0  0  0  0
    0.0000    0.0000    0.0000 C   0  0  0  0  0  0  0  0  0  0  0  0
    0.0000    0.0000    0.0000 N   0  0  0  0  0  0  0  0  0  0  0  0
    0.0000    0.0000    0.0000 C   0  0  0  0  0  0  0  0  0  0  0  0
    0.0000    0.0000    0.0000 C   0  0  0  0  0  0  0  0  0  0  0  0
    0.0000    0.0000    0.0000 N   0  0  0  0  0  0  0  0  0  0  0  0
    0.0000    0.0000    0.0000 C   0  0  0  0  0  0  0  0  0  0  0  0
    0.0000    0.0000    0.0000 S   0  0  0  0  0  0  0  0  0  0  0  0
  1  2  1  0
  2  3  1  0
  3  4  1  0
  3  5  1  0
  5  6  1  0
  6  7  1  0
  7  8  1  0
  8  9  1  0
  9 10  1  0
 10 11  2  0
 11 12  1  0
 12 13  2  0
 13 14  1  0
 14 15  2  0
  8 16  1  0
 16 17  2  0
 16 18  1  0
 18 19  1  0
 19 20  1  0
 20 21  1  0
 21 22  1  0
 22 23  2  0
 22 24  2  0
 22 25  1  0
 19 26  1  0
 26 27  2  0
 26 28  1  0
 28 29  1  0
 29 30  1  0
 29 31  1  0
  5 32  1  0
 32 33  1  0
 33 34  1  0
 34 35  1  0
 34 36  1  0
 36 37  1  0
 15 10  1  0
M  END
>  <pIC50>  (169) 
6.37

>  <ChEMBL_ID>  (169) 
CHEMBL1221512

>  <document_journal>  (169) 
None

>  <bao_endpoint>  (169) 
BAO_0000190

>  <potential_duplicate>  (169) 
False

>  <uo_units>  (169) 
UO_0000065

>  <canonical_smiles>  (169) 
CC[C@H](C)[C@@H](CO[C@@H](Cc1ccccc1)C(=O)N[C@@H](CCS(=O)(=O)C)C(=O)OC(C)C)NC[C@@H](N)CS

>  <parent_molecule_chembl_id>  (169) 
CHEMBL1221512

>  <assay_type>  (169) 
B

>  <src_id>  (169) 
15

>  <ligand_efficiency>  (169) 
{u'le': u'0.23', u'bei': u'11.37', u'sei': u'3.46', u'lle': u'4.07'}

>  <standard_flag>  (169) 
True

>  <molecule_chembl_id>  (169) 
CHEMBL1221512

>  <target_organism>  (169) 
Homo sapiens

>  <standard_units>  (169) 
nM

>  <record_id>  (169) 
1539869

>  <document_chembl_id>  (169) 
CHEMBL1909046

>  <bao_format>  (169) 
BAO_0000249

>  <data_validity_description>  (169) 
None

>  <activity_id>  (169) 
7754912

>  <standard_type>  (169) 
IC50

>  <target_chembl_id>  (169) 
CHEMBL1867

>  <data_validity_comment>  (169) 
None

>  <published_value>  (169) 
0.432

>  <document_year>  (169) 
None

>  <target_pref_name>  (169) 
Alpha-2a adrenergic receptor

>  <assay_chembl_id>  (169) 
CHEMBL1909088

>  <standard_relation>  (169) 
=

>  <assay_description>  (169) 
DRUGMATRIX: Alpha-2A adrenergic receptor radioligand binding (ligand: MK-912)

>  <published_relation>  (169) 
=

>  <standard_value>  (169) 
432

>  <qudt_units>  (169) 
http://www.openphacts.org/units/Nanomolar

>  <target_tax_id>  (169) 
9606

>  <bao_label>  (169) 
cell membrane format

>  <published_units>  (169) 
uM

>  <pchembl_value>  (169) 
6.37

>  <published_type>  (169) 
IC50

>  <activity_comment>  (169) 
None

$$$$

     RDKit          

 30 34  0  0  0  0  0  0  0  0999 V2000
    0.0000    0.0000    0.0000 C   0  0  0  0  0  0  0  0  0  0  0  0
    0.0000    0.0000    0.0000 N   0  0  0  0  0  0  0  0  0  0  0  0
    0.0000    0.0000    0.0000 C   0  0  0  0  0  0  0  0  0  0  0  0
    0.0000    0.0000    0.0000 C   0  0  0  0  0  0  0  0  0  0  0  0
    0.0000    0.0000    0.0000 C   0  0  0  0  0  0  0  0  0  0  0  0
    0.0000    0.0000    0.0000 N   0  0  0  0  0  0  0  0  0  0  0  0
    0.0000    0.0000    0.0000 C   0  0  0  0  0  0  0  0  0  0  0  0
    0.0000    0.0000    0.0000 O   0  0  0  0  0  0  0  0  0  0  0  0
    0.0000    0.0000    0.0000 O   0  0  0  0  0  0  0  0  0  0  0  0
    0.0000    0.0000    0.0000 C   0  0  0  0  0  0  0  0  0  0  0  0
    0.0000    0.0000    0.0000 C   0  0  0  0  0  0  0  0  0  0  0  0
    0.0000    0.0000    0.0000 C   0  0  0  0  0  0  0  0  0  0  0  0
    0.0000    0.0000    0.0000 C   0  0  0  0  0  0  0  0  0  0  0  0
    0.0000    0.0000    0.0000 C   0  0  0  0  0  0  0  0  0  0  0  0
    0.0000    0.0000    0.0000 C   0  0  0  0  0  0  0  0  0  0  0  0
    0.0000    0.0000    0.0000 C   0  0  0  0  0  0  0  0  0  0  0  0
    0.0000    0.0000    0.0000 C   0  0  0  0  0  0  0  0  0  0  0  0
    0.0000    0.0000    0.0000 C   0  0  0  0  0  0  0  0  0  0  0  0
    0.0000    0.0000    0.0000 C   0  0  0  0  0  0  0  0  0  0  0  0
    0.0000    0.0000    0.0000 C   0  0  0  0  0  0  0  0  0  0  0  0
    0.0000    0.0000    0.0000 C   0  0  0  0  0  0  0  0  0  0  0  0
    0.0000    0.0000    0.0000 C   0  0  0  0  0  0  0  0  0  0  0  0
    0.0000    0.0000    0.0000 N   0  0  0  0  0  0  0  0  0  0  0  0
    0.0000    0.0000    0.0000 C   0  0  0  0  0  0  0  0  0  0  0  0
    0.0000    0.0000    0.0000 C   0  0  0  0  0  0  0  0  0  0  0  0
    0.0000    0.0000    0.0000 C   0  0  0  0  0  0  0  0  0  0  0  0
    0.0000    0.0000    0.0000 C   0  0  0  0  0  0  0  0  0  0  0  0
    0.0000    0.0000    0.0000 C   0  0  0  0  0  0  0  0  0  0  0  0
    0.0000    0.0000    0.0000 C   0  0  0  0  0  0  0  0  0  0  0  0
    0.0000    0.0000    0.0000 C   0  0  0  0  0  0  0  0  0  0  0  0
  1  2  1  0
  2  3  1  0
  3  4  1  0
  4  5  1  0
  5  6  1  0
  6  7  1  0
  7  8  2  0
  7  9  1  0
  9 10  1  0
 10 11  1  0
 11 12  2  0
 12 13  1  0
 13 14  2  0
 14 15  1  0
 15 16  2  0
  4 17  1  0
 17 18  1  0
 18 19  1  0
 19 20  1  0
 20 21  1  0
 21 22  2  0
 22 23  1  0
 23 24  1  0
 23 25  1  0
 25 26  2  0
 26 27  1  0
 27 28  2  0
 28 29  1  0
 29 30  2  0
 19  2  1  0
 16 11  1  0
 29 18  1  0
 30 21  1  0
 30 25  1  0
M  END
>  <pIC50>  (170) 
7.24

>  <ChEMBL_ID>  (170) 
CHEMBL19215

>  <document_journal>  (170) 
None

>  <bao_endpoint>  (170) 
BAO_0000190

>  <potential_duplicate>  (170) 
False

>  <uo_units>  (170) 
UO_0000065

>  <canonical_smiles>  (170) 
CN1C[C@H](CNC(=O)OCc2ccccc2)C[C@H]3[C@H]1Cc4cn(C)c5cccc3c45

>  <parent_molecule_chembl_id>  (170) 
CHEMBL19215

>  <assay_type>  (170) 
B

>  <src_id>  (170) 
15

>  <ligand_efficiency>  (170) 
{u'le': u'0.33', u'bei': u'17.93', u'sei': u'15.56', u'lle': u'2.99'}

>  <standard_flag>  (170) 
True

>  <molecule_chembl_id>  (170) 
CHEMBL19215

>  <target_organism>  (170) 
Homo sapiens

>  <standard_units>  (170) 
nM

>  <record_id>  (170) 
1539926

>  <document_chembl_id>  (170) 
CHEMBL1909046

>  <bao_format>  (170) 
BAO_0000249

>  <data_validity_description>  (170) 
None

>  <activity_id>  (170) 
7755810

>  <standard_type>  (170) 
IC50

>  <target_chembl_id>  (170) 
CHEMBL1867

>  <data_validity_comment>  (170) 
None

>  <published_value>  (170) 
0.058

>  <document_year>  (170) 
None

>  <target_pref_name>  (170) 
Alpha-2a adrenergic receptor

>  <assay_chembl_id>  (170) 
CHEMBL1909088

>  <standard_relation>  (170) 
=

>  <assay_description>  (170) 
DRUGMATRIX: Alpha-2A adrenergic receptor radioligand binding (ligand: MK-912)

>  <published_relation>  (170) 
=

>  <standard_value>  (170) 
58

>  <qudt_units>  (170) 
http://www.openphacts.org/units/Nanomolar

>  <target_tax_id>  (170) 
9606

>  <bao_label>  (170) 
cell membrane format

>  <published_units>  (170) 
uM

>  <pchembl_value>  (170) 
7.24

>  <published_type>  (170) 
IC50

>  <activity_comment>  (170) 
None

$$$$

     RDKit          

 25 28  0  0  0  0  0  0  0  0999 V2000
    0.0000    0.0000    0.0000 C   0  0  0  0  0  0  0  0  0  0  0  0
    0.0000    0.0000    0.0000 C   0  0  0  0  0  0  0  0  0  0  0  0
    0.0000    0.0000    0.0000 N   0  0  0  0  0  0  0  0  0  0  0  0
    0.0000    0.0000    0.0000 C   0  0  0  0  0  0  0  0  0  0  0  0
    0.0000    0.0000    0.0000 C   0  0  0  0  0  0  0  0  0  0  0  0
    0.0000    0.0000    0.0000 C   0  0  0  0  0  0  0  0  0  0  0  0
    0.0000    0.0000    0.0000 O   0  0  0  0  0  0  0  0  0  0  0  0
    0.0000    0.0000    0.0000 N   0  0  0  0  0  0  0  0  0  0  0  0
    0.0000    0.0000    0.0000 C   0  0  0  0  0  0  0  0  0  0  0  0
    0.0000    0.0000    0.0000 C   0  0  0  0  0  0  0  0  0  0  0  0
    0.0000    0.0000    0.0000 N   0  0  0  0  0  0  0  0  0  0  0  0
    0.0000    0.0000    0.0000 C   0  0  0  0  0  0  0  0  0  0  0  0
    0.0000    0.0000    0.0000 C   0  0  0  0  0  0  0  0  0  0  0  0
    0.0000    0.0000    0.0000 C   0  0  0  0  0  0  0  0  0  0  0  0
    0.0000    0.0000    0.0000 C   0  0  0  0  0  0  0  0  0  0  0  0
    0.0000    0.0000    0.0000 C   0  0  0  0  0  0  0  0  0  0  0  0
    0.0000    0.0000    0.0000 N   0  0  0  0  0  0  0  0  0  0  0  0
    0.0000    0.0000    0.0000 C   0  0  0  0  0  0  0  0  0  0  0  0
    0.0000    0.0000    0.0000 C   0  0  0  0  0  0  0  0  0  0  0  0
    0.0000    0.0000    0.0000 C   0  0  0  0  0  0  0  0  0  0  0  0
    0.0000    0.0000    0.0000 C   0  0  0  0  0  0  0  0  0  0  0  0
    0.0000    0.0000    0.0000 C   0  0  0  0  0  0  0  0  0  0  0  0
    0.0000    0.0000    0.0000 C   0  0  0  0  0  0  0  0  0  0  0  0
    0.0000    0.0000    0.0000 C   0  0  0  0  0  0  0  0  0  0  0  0
    0.0000    0.0000    0.0000 C   0  0  0  0  0  0  0  0  0  0  0  0
  1  2  1  0
  2  3  1  0
  3  4  1  0
  4  5  1  0
  3  6  1  0
  6  7  2  0
  6  8  1  0
  8  9  1  0
  9 10  1  0
 10 11  1  0
 11 12  1  0
 11 13  1  0
 13 14  1  0
 14 15  1  0
 15 16  2  0
 16 17  1  0
 17 18  1  0
 18 19  2  0
 19 20  1  0
 20 21  2  0
 21 22  1  0
 22 23  1  0
 23 24  2  0
 22 25  2  0
 24  9  1  0
 23 13  1  0
 25 15  1  0
 25 18  1  0
M  END
>  <pIC50>  (171) 
9.51

>  <ChEMBL_ID>  (171) 
CHEMBL157138

>  <document_journal>  (171) 
None

>  <bao_endpoint>  (171) 
BAO_0000190

>  <potential_duplicate>  (171) 
False

>  <uo_units>  (171) 
UO_0000065

>  <canonical_smiles>  (171) 
CCN(CC)C(=O)N[C@@H]1CN(C)[C@@H]2Cc3c[nH]c4cccc(C2=C1)c34

>  <parent_molecule_chembl_id>  (171) 
CHEMBL157138

>  <assay_type>  (171) 
B

>  <src_id>  (171) 
15

>  <ligand_efficiency>  (171) 
{u'le': u'0.52', u'bei': u'28.09', u'sei': u'18.51', u'lle': u'6.91'}

>  <standard_flag>  (171) 
True

>  <molecule_chembl_id>  (171) 
CHEMBL157138

>  <target_organism>  (171) 
Homo sapiens

>  <standard_units>  (171) 
nM

>  <record_id>  (171) 
1539894

>  <document_chembl_id>  (171) 
CHEMBL1909046

>  <bao_format>  (171) 
BAO_0000249

>  <data_validity_description>  (171) 
None

>  <activity_id>  (171) 
7759592

>  <standard_type>  (171) 
IC50

>  <target_chembl_id>  (171) 
CHEMBL1867

>  <data_validity_comment>  (171) 
None

>  <published_value>  (171) 
0.00031

>  <document_year>  (171) 
None

>  <target_pref_name>  (171) 
Alpha-2a adrenergic receptor

>  <assay_chembl_id>  (171) 
CHEMBL1909088

>  <standard_relation>  (171) 
=

>  <assay_description>  (171) 
DRUGMATRIX: Alpha-2A adrenergic receptor radioligand binding (ligand: MK-912)

>  <published_relation>  (171) 
=

>  <standard_value>  (171) 
0.31

>  <qudt_units>  (171) 
http://www.openphacts.org/units/Nanomolar

>  <target_tax_id>  (171) 
9606

>  <bao_label>  (171) 
cell membrane format

>  <published_units>  (171) 
uM

>  <pchembl_value>  (171) 
9.51

>  <published_type>  (171) 
IC50

>  <activity_comment>  (171) 
None

$$$$

     RDKit          

 41 45  0  0  0  0  0  0  0  0999 V2000
    0.0000    0.0000    0.0000 C   0  0  0  0  0  0  0  0  0  0  0  0
    0.0000    0.0000    0.0000 C   0  0  0  0  0  0  0  0  0  0  0  0
    0.0000    0.0000    0.0000 C   0  0  0  0  0  0  0  0  0  0  0  0
    0.0000    0.0000    0.0000 O   0  0  0  0  0  0  0  0  0  0  0  0
    0.0000    0.0000    0.0000 C   0  0  0  0  0  0  0  0  0  0  0  0
    0.0000    0.0000    0.0000 C   0  0  0  0  0  0  0  0  0  0  0  0
    0.0000    0.0000    0.0000 C   0  0  0  0  0  0  0  0  0  0  0  0
    0.0000    0.0000    0.0000 C   0  0  0  0  0  0  0  0  0  0  0  0
    0.0000    0.0000    0.0000 C   0  0  0  0  0  0  0  0  0  0  0  0
    0.0000    0.0000    0.0000 C   0  0  0  0  0  0  0  0  0  0  0  0
    0.0000    0.0000    0.0000 C   0  0  0  0  0  0  0  0  0  0  0  0
    0.0000    0.0000    0.0000 C   0  0  0  0  0  0  0  0  0  0  0  0
    0.0000    0.0000    0.0000 C   0  0  0  0  0  0  0  0  0  0  0  0
    0.0000    0.0000    0.0000 S   0  0  0  0  0  0  0  0  0  0  0  0
    0.0000    0.0000    0.0000 C   0  0  0  0  0  0  0  0  0  0  0  0
    0.0000    0.0000    0.0000 C   0  0  0  0  0  0  0  0  0  0  0  0
    0.0000    0.0000    0.0000 C   0  0  0  0  0  0  0  0  0  0  0  0
    0.0000    0.0000    0.0000 C   0  0  0  0  0  0  0  0  0  0  0  0
    0.0000    0.0000    0.0000 O   0  0  0  0  0  0  0  0  0  0  0  0
    0.0000    0.0000    0.0000 O   0  0  0  0  0  0  0  0  0  0  0  0
    0.0000    0.0000    0.0000 C   0  0  0  0  0  0  0  0  0  0  0  0
    0.0000    0.0000    0.0000 C   0  0  0  0  0  0  0  0  0  0  0  0
    0.0000    0.0000    0.0000 C   0  0  0  0  0  0  0  0  0  0  0  0
    0.0000    0.0000    0.0000 C   0  0  0  0  0  0  0  0  0  0  0  0
    0.0000    0.0000    0.0000 C   0  0  0  0  0  0  0  0  0  0  0  0
    0.0000    0.0000    0.0000 C   0  0  0  0  0  0  0  0  0  0  0  0
    0.0000    0.0000    0.0000 C   0  0  0  0  0  0  0  0  0  0  0  0
    0.0000    0.0000    0.0000 C   0  0  0  0  0  0  0  0  0  0  0  0
    0.0000    0.0000    0.0000 C   0  0  0  0  0  0  0  0  0  0  0  0
    0.0000    0.0000    0.0000 C   0  0  0  0  0  0  0  0  0  0  0  0
    0.0000    0.0000    0.0000 C   0  0  0  0  0  0  0  0  0  0  0  0
    0.0000    0.0000    0.0000 C   0  0  0  0  0  0  0  0  0  0  0  0
    0.0000    0.0000    0.0000 C   0  0  0  0  0  0  0  0  0  0  0  0
    0.0000    0.0000    0.0000 C   0  0  0  0  0  0  0  0  0  0  0  0
    0.0000    0.0000    0.0000 C   0  0  0  0  0  0  0  0  0  0  0  0
    0.0000    0.0000    0.0000 C   0  0  0  0  0  0  0  0  0  0  0  0
    0.0000    0.0000    0.0000 Cl  0  0  0  0  0  0  0  0  0  0  0  0
    0.0000    0.0000    0.0000 C   0  0  0  0  0  0  0  0  0  0  0  0
    0.0000    0.0000    0.0000 C   0  0  0  0  0  0  0  0  0  0  0  0
    0.0000    0.0000    0.0000 N   0  0  0  0  0  0  0  0  0  0  0  0
    0.0000    0.0000    0.0000 C   0  0  0  0  0  0  0  0  0  0  0  0
  1  2  1  0
  2  3  1  0
  2  4  1  0
  2  5  1  0
  5  6  2  0
  6  7  1  0
  7  8  2  0
  8  9  1  0
  9 10  2  0
 10 11  1  0
 11 12  1  0
 12 13  1  0
 13 14  1  0
 14 15  1  0
 15 16  1  0
 16 17  1  0
 17 18  1  0
 18 19  2  0
 18 20  1  0
 16 21  1  0
 21 22  1  0
 13 23  1  0
 23 24  2  0
 24 25  1  0
 25 26  2  0
 26 27  1  0
 27 28  1  0
 28 29  2  0
 29 30  1  0
 30 31  2  0
 31 32  1  0
 32 33  2  0
 33 34  1  0
 34 35  2  0
 35 36  1  0
 36 37  1  0
 36 38  2  0
 38 39  1  0
 39 40  2  0
 27 41  2  0
 10  5  1  0
 22 16  1  0
 41 23  1  0
 40 30  1  0
 39 33  1  0
M  END
>  <pIC50>  (172) 
5.41

>  <ChEMBL_ID>  (172) 
CHEMBL787

>  <document_journal>  (172) 
None

>  <bao_endpoint>  (172) 
BAO_0000190

>  <potential_duplicate>  (172) 
False

>  <uo_units>  (172) 
UO_0000065

>  <canonical_smiles>  (172) 
CC(C)(O)c1ccccc1CC[C@@H](SCC2(CC(=O)O)CC2)c3cccc(\C=C\c4ccc5ccc(Cl)cc5n4)c3

>  <parent_molecule_chembl_id>  (172) 
CHEMBL787

>  <assay_type>  (172) 
B

>  <src_id>  (172) 
15

>  <ligand_efficiency>  (172) 
{u'le': u'0.18', u'bei': u'9.22', u'sei': u'5.65', u'lle': u'-2.87'}

>  <standard_flag>  (172) 
True

>  <molecule_chembl_id>  (172) 
CHEMBL787

>  <target_organism>  (172) 
Homo sapiens

>  <standard_units>  (172) 
nM

>  <record_id>  (172) 
1539960

>  <document_chembl_id>  (172) 
CHEMBL1909046

>  <bao_format>  (172) 
BAO_0000249

>  <data_validity_description>  (172) 
None

>  <activity_id>  (172) 
7760749

>  <standard_type>  (172) 
IC50

>  <target_chembl_id>  (172) 
CHEMBL1867

>  <data_validity_comment>  (172) 
None

>  <published_value>  (172) 
3.919

>  <document_year>  (172) 
None

>  <target_pref_name>  (172) 
Alpha-2a adrenergic receptor

>  <assay_chembl_id>  (172) 
CHEMBL1909088

>  <standard_relation>  (172) 
=

>  <assay_description>  (172) 
DRUGMATRIX: Alpha-2A adrenergic receptor radioligand binding (ligand: MK-912)

>  <published_relation>  (172) 
=

>  <standard_value>  (172) 
3919

>  <qudt_units>  (172) 
http://www.openphacts.org/units/Nanomolar

>  <target_tax_id>  (172) 
9606

>  <bao_label>  (172) 
cell membrane format

>  <published_units>  (172) 
uM

>  <pchembl_value>  (172) 
5.41

>  <published_type>  (172) 
IC50

>  <activity_comment>  (172) 
None

$$$$

     RDKit          

 64 70  0  0  0  0  0  0  0  0999 V2000
    0.0000    0.0000    0.0000 C   0  0  0  0  0  0  0  0  0  0  0  0
    0.0000    0.0000    0.0000 O   0  0  0  0  0  0  0  0  0  0  0  0
    0.0000    0.0000    0.0000 C   0  0  0  0  0  0  0  0  0  0  0  0
    0.0000    0.0000    0.0000 C   0  0  0  0  0  0  0  0  0  0  0  0
    0.0000    0.0000    0.0000 C   0  0  0  0  0  0  0  0  0  0  0  0
    0.0000    0.0000    0.0000 O   0  0  0  0  0  0  0  0  0  0  0  0
    0.0000    0.0000    0.0000 C   0  0  0  0  0  0  0  0  0  0  0  0
    0.0000    0.0000    0.0000 C   0  0  0  0  0  0  0  0  0  0  0  0
    0.0000    0.0000    0.0000 C   0  0  0  0  0  0  0  0  0  0  0  0
    0.0000    0.0000    0.0000 O   0  0  0  0  0  0  0  0  0  0  0  0
    0.0000    0.0000    0.0000 C   0  0  0  0  0  0  0  0  0  0  0  0
    0.0000    0.0000    0.0000 C   0  0  0  0  0  0  0  0  0  0  0  0
    0.0000    0.0000    0.0000 C   0  0  0  0  0  0  0  0  0  0  0  0
    0.0000    0.0000    0.0000 C   0  0  0  0  0  0  0  0  0  0  0  0
    0.0000    0.0000    0.0000 C   0  0  0  0  0  0  0  0  0  0  0  0
    0.0000    0.0000    0.0000 C   0  0  0  0  0  0  0  0  0  0  0  0
    0.0000    0.0000    0.0000 O   0  0  0  0  0  0  0  0  0  0  0  0
    0.0000    0.0000    0.0000 C   0  0  0  0  0  0  0  0  0  0  0  0
    0.0000    0.0000    0.0000 C   0  0  0  0  0  0  0  0  0  0  0  0
    0.0000    0.0000    0.0000 C   0  0  0  0  0  0  0  0  0  0  0  0
    0.0000    0.0000    0.0000 C   0  0  0  0  0  0  0  0  0  0  0  0
    0.0000    0.0000    0.0000 C   0  0  0  0  0  0  0  0  0  0  0  0
    0.0000    0.0000    0.0000 C   0  0  0  0  0  0  0  0  0  0  0  0
    0.0000    0.0000    0.0000 C   0  0  0  0  0  0  0  0  0  0  0  0
    0.0000    0.0000    0.0000 O   0  0  0  0  0  0  0  0  0  0  0  0
    0.0000    0.0000    0.0000 C   0  0  0  0  0  0  0  0  0  0  0  0
    0.0000    0.0000    0.0000 C   0  0  0  0  0  0  0  0  0  0  0  0
    0.0000    0.0000    0.0000 C   0  0  0  0  0  0  0  0  0  0  0  0
    0.0000    0.0000    0.0000 O   0  0  0  0  0  0  0  0  0  0  0  0
    0.0000    0.0000    0.0000 C   0  0  0  0  0  0  0  0  0  0  0  0
    0.0000    0.0000    0.0000 C   0  0  0  0  0  0  0  0  0  0  0  0
    0.0000    0.0000    0.0000 C   0  0  0  0  0  0  0  0  0  0  0  0
    0.0000    0.0000    0.0000 O   0  0  0  0  0  0  0  0  0  0  0  0
    0.0000    0.0000    0.0000 C   0  0  0  0  0  0  0  0  0  0  0  0
    0.0000    0.0000    0.0000 O   0  0  0  0  0  0  0  0  0  0  0  0
    0.0000    0.0000    0.0000 C   0  0  0  0  0  0  0  0  0  0  0  0
    0.0000    0.0000    0.0000 C   0  0  0  0  0  0  0  0  0  0  0  0
    0.0000    0.0000    0.0000 O   0  0  0  0  0  0  0  0  0  0  0  0
    0.0000    0.0000    0.0000 O   0  0  0  0  0  0  0  0  0  0  0  0
    0.0000    0.0000    0.0000 C   0  0  0  0  0  0  0  0  0  0  0  0
    0.0000    0.0000    0.0000 C   0  0  0  0  0  0  0  0  0  0  0  0
    0.0000    0.0000    0.0000 C   0  0  0  0  0  0  0  0  0  0  0  0
    0.0000    0.0000    0.0000 O   0  0  0  0  0  0  0  0  0  0  0  0
    0.0000    0.0000    0.0000 C   0  0  0  0  0  0  0  0  0  0  0  0
    0.0000    0.0000    0.0000 C   0  0  0  0  0  0  0  0  0  0  0  0
    0.0000    0.0000    0.0000 O   0  0  0  0  0  0  0  0  0  0  0  0
    0.0000    0.0000    0.0000 C   0  0  0  0  0  0  0  0  0  0  0  0
    0.0000    0.0000    0.0000 O   0  0  0  0  0  0  0  0  0  0  0  0
    0.0000    0.0000    0.0000 C   0  0  0  0  0  0  0  0  0  0  0  0
    0.0000    0.0000    0.0000 O   0  0  0  0  0  0  0  0  0  0  0  0
    0.0000    0.0000    0.0000 C   0  0  0  0  0  0  0  0  0  0  0  0
    0.0000    0.0000    0.0000 C   0  0  0  0  0  0  0  0  0  0  0  0
    0.0000    0.0000    0.0000 O   0  0  0  0  0  0  0  0  0  0  0  0
    0.0000    0.0000    0.0000 C   0  0  0  0  0  0  0  0  0  0  0  0
    0.0000    0.0000    0.0000 C   0  0  0  0  0  0  0  0  0  0  0  0
    0.0000    0.0000    0.0000 C   0  0  0  0  0  0  0  0  0  0  0  0
    0.0000    0.0000    0.0000 C   0  0  0  0  0  0  0  0  0  0  0  0
    0.0000    0.0000    0.0000 C   0  0  0  0  0  0  0  0  0  0  0  0
    0.0000    0.0000    0.0000 O   0  0  0  0  0  0  0  0  0  0  0  0
    0.0000    0.0000    0.0000 C   0  0  0  0  0  0  0  0  0  0  0  0
    0.0000    0.0000    0.0000 C   0  0  0  0  0  0  0  0  0  0  0  0
    0.0000    0.0000    0.0000 C   0  0  0  0  0  0  0  0  0  0  0  0
    0.0000    0.0000    0.0000 O   0  0  0  0  0  0  0  0  0  0  0  0
    0.0000    0.0000    0.0000 C   0  0  0  0  0  0  0  0  0  0  0  0
  1  2  1  0
  2  3  1  0
  3  4  1  0
  4  5  1  0
  5  6  1  0
  6  7  1  0
  7  8  1  0
  8  9  1  0
  9 10  1  0
 10 11  1  0
 11 12  1  0
 12 13  1  0
 12 14  1  0
 14 15  1  0
 15 16  1  0
 16 17  1  0
 16 18  1  0
 18 19  1  0
 18 20  1  0
 20 21  1  0
 21 22  1  0
 22 23  1  0
 23 24  1  0
 24 25  1  0
 24 26  1  0
 26 27  1  0
 26 28  1  0
 28 29  1  0
 28 30  1  0
 30 31  1  0
 30 32  1  0
 32 33  1  0
 33 34  1  0
 34 35  1  0
 34 36  1  0
 36 37  1  0
 37 38  2  0
 37 39  1  0
 34 40  1  0
 40 41  1  0
 40 42  1  0
 42 43  1  0
 43 44  1  0
 42 45  1  0
 45 46  1  0
 46 47  1  0
 22 48  1  0
  9 49  1  0
 49 50  1  0
 50 51  1  0
 51 52  1  0
 51 53  1  0
 51 54  1  0
 54 55  1  0
 54 56  1  0
 56 57  1  0
 57 58  1  0
  5 59  1  0
 59 60  1  0
 60 61  1  0
 60 62  1  0
 62 63  1  0
 63 64  1  0
 62  3  1  0
 11  7  1  0
 17 12  1  0
 48 18  1  0
 29 22  1  0
 45 32  1  0
 57 49  1  0
M  END
>  <pIC50>  (173) 
6.75

>  <ChEMBL_ID>  (173) 
CHEMBL1909065

>  <document_journal>  (173) 
None

>  <bao_endpoint>  (173) 
BAO_0000190

>  <potential_duplicate>  (173) 
False

>  <uo_units>  (173) 
UO_0000065

>  <canonical_smiles>  (173) 
CO[C@H]1C[C@@H](O[C@H]2C[C@@H](O[C@H]2[C@]3(C)CC[C@@H](O3)[C@]4(C)CC[C@]5(C[C@H](O)[C@@H](C)[C@H](O5)[C@@H](C)[C@@H]6O[C@](O)(CC(=O)O)[C@@H](C)[C@H](OC)[C@H]6OC)O4)[C@H]7O[C@](C)(O)[C@H](C)C[C@@H]7C)O[C@@H](C)[C@@H]1OC

>  <parent_molecule_chembl_id>  (173) 
CHEMBL1909065

>  <assay_type>  (173) 
B

>  <src_id>  (173) 
15

>  <ligand_efficiency>  (173) 
{u'le': u'0.14', u'bei': u'7.35', u'sei': u'3.23', u'lle': u'4.57'}

>  <standard_flag>  (173) 
True

>  <molecule_chembl_id>  (173) 
CHEMBL1909065

>  <target_organism>  (173) 
Homo sapiens

>  <standard_units>  (173) 
nM

>  <record_id>  (173) 
1539904

>  <document_chembl_id>  (173) 
CHEMBL1909046

>  <bao_format>  (173) 
BAO_0000249

>  <data_validity_description>  (173) 
None

>  <activity_id>  (173) 
7764071

>  <standard_type>  (173) 
IC50

>  <target_chembl_id>  (173) 
CHEMBL1867

>  <data_validity_comment>  (173) 
None

>  <published_value>  (173) 
0.18

>  <document_year>  (173) 
None

>  <target_pref_name>  (173) 
Alpha-2a adrenergic receptor

>  <assay_chembl_id>  (173) 
CHEMBL1909088

>  <standard_relation>  (173) 
=

>  <assay_description>  (173) 
DRUGMATRIX: Alpha-2A adrenergic receptor radioligand binding (ligand: MK-912)

>  <published_relation>  (173) 
=

>  <standard_value>  (173) 
180

>  <qudt_units>  (173) 
http://www.openphacts.org/units/Nanomolar

>  <target_tax_id>  (173) 
9606

>  <bao_label>  (173) 
cell membrane format

>  <published_units>  (173) 
uM

>  <pchembl_value>  (173) 
6.75

>  <published_type>  (173) 
IC50

>  <activity_comment>  (173) 
None

$$$$

     RDKit          

 18 19  0  0  0  0  0  0  0  0999 V2000
    0.0000    0.0000    0.0000 C   0  0  0  0  0  0  0  0  0  0  0  0
    0.0000    0.0000    0.0000 N   0  0  0  0  0  0  0  0  0  0  0  0
    0.0000    0.0000    0.0000 C   0  0  0  0  0  0  0  0  0  0  0  0
    0.0000    0.0000    0.0000 C   0  0  0  0  0  0  0  0  0  0  0  0
    0.0000    0.0000    0.0000 C   0  0  0  0  0  0  0  0  0  0  0  0
    0.0000    0.0000    0.0000 N   0  0  0  0  0  0  0  0  0  0  0  0
    0.0000    0.0000    0.0000 C   0  0  0  0  0  0  0  0  0  0  0  0
    0.0000    0.0000    0.0000 C   0  0  0  0  0  0  0  0  0  0  0  0
    0.0000    0.0000    0.0000 C   0  0  0  0  0  0  0  0  0  0  0  0
    0.0000    0.0000    0.0000 C   0  0  0  0  0  0  0  0  0  0  0  0
    0.0000    0.0000    0.0000 C   0  0  0  0  0  0  0  0  0  0  0  0
    0.0000    0.0000    0.0000 S   0  0  0  0  0  0  0  0  0  0  0  0
    0.0000    0.0000    0.0000 C   0  0  0  0  0  0  0  0  0  0  0  0
    0.0000    0.0000    0.0000 C   0  0  0  0  0  0  0  0  0  0  0  0
    0.0000    0.0000    0.0000 C   0  0  0  0  0  0  0  0  0  0  0  0
    0.0000    0.0000    0.0000 C   0  0  0  0  0  0  0  0  0  0  0  0
    0.0000    0.0000    0.0000 C   0  0  0  0  0  0  0  0  0  0  0  0
    0.0000    0.0000    0.0000 N   0  0  0  0  0  0  0  0  0  0  0  0
  1  2  1  0
  2  3  1  0
  2  4  1  0
  4  5  1  0
  5  6  1  0
  6  7  1  0
  7  8  1  0
  8  9  2  0
  9 10  1  0
 10 11  2  0
 11 12  1  0
  6 13  1  0
 13 14  2  0
 14 15  1  0
 15 16  2  0
 16 17  1  0
 17 18  2  0
 12  8  1  0
 18 13  1  0
M  END
>  <pIC50>  (174) 
5.93

>  <ChEMBL_ID>  (174) 
CHEMBL1411979

>  <document_journal>  (174) 
None

>  <bao_endpoint>  (174) 
BAO_0000190

>  <potential_duplicate>  (174) 
False

>  <uo_units>  (174) 
UO_0000065

>  <canonical_smiles>  (174) 
CN(C)CCN(Cc1cccs1)c2ccccn2

>  <parent_molecule_chembl_id>  (174) 
CHEMBL1411979

>  <assay_type>  (174) 
B

>  <src_id>  (174) 
15

>  <ligand_efficiency>  (174) 
{u'le': u'0.45', u'bei': u'22.7', u'sei': u'12.46', u'lle': u'3.09'}

>  <standard_flag>  (174) 
True

>  <molecule_chembl_id>  (174) 
CHEMBL1411979

>  <target_organism>  (174) 
Homo sapiens

>  <standard_units>  (174) 
nM

>  <record_id>  (174) 
1539928

>  <document_chembl_id>  (174) 
CHEMBL1909046

>  <bao_format>  (174) 
BAO_0000249

>  <data_validity_description>  (174) 
None

>  <activity_id>  (174) 
7764367

>  <standard_type>  (174) 
IC50

>  <target_chembl_id>  (174) 
CHEMBL1867

>  <data_validity_comment>  (174) 
None

>  <published_value>  (174) 
1.165

>  <document_year>  (174) 
None

>  <target_pref_name>  (174) 
Alpha-2a adrenergic receptor

>  <assay_chembl_id>  (174) 
CHEMBL1909088

>  <standard_relation>  (174) 
=

>  <assay_description>  (174) 
DRUGMATRIX: Alpha-2A adrenergic receptor radioligand binding (ligand: MK-912)

>  <published_relation>  (174) 
=

>  <standard_value>  (174) 
1165

>  <qudt_units>  (174) 
http://www.openphacts.org/units/Nanomolar

>  <target_tax_id>  (174) 
9606

>  <bao_label>  (174) 
cell membrane format

>  <published_units>  (174) 
uM

>  <pchembl_value>  (174) 
5.93

>  <published_type>  (174) 
IC50

>  <activity_comment>  (174) 
None

$$$$

     RDKit          

 29 31  0  0  0  0  0  0  0  0999 V2000
    0.0000    0.0000    0.0000 C   0  0  0  0  0  0  0  0  0  0  0  0
    0.0000    0.0000    0.0000 C   0  0  0  0  0  0  0  0  0  0  0  0
    0.0000    0.0000    0.0000 O   0  0  0  0  0  0  0  0  0  0  0  0
    0.0000    0.0000    0.0000 C   0  0  0  0  0  0  0  0  0  0  0  0
    0.0000    0.0000    0.0000 C   0  0  0  0  0  0  0  0  0  0  0  0
    0.0000    0.0000    0.0000 C   0  0  0  0  0  0  0  0  0  0  0  0
    0.0000    0.0000    0.0000 N   0  0  0  0  0  0  0  0  0  0  0  0
    0.0000    0.0000    0.0000 C   0  0  0  0  0  0  0  0  0  0  0  0
    0.0000    0.0000    0.0000 Cl  0  0  0  0  0  0  0  0  0  0  0  0
    0.0000    0.0000    0.0000 C   0  0  0  0  0  0  0  0  0  0  0  0
    0.0000    0.0000    0.0000 C   0  0  0  0  0  0  0  0  0  0  0  0
    0.0000    0.0000    0.0000 C   0  0  0  0  0  0  0  0  0  0  0  0
    0.0000    0.0000    0.0000 O   0  0  0  0  0  0  0  0  0  0  0  0
    0.0000    0.0000    0.0000 N   0  0  0  0  0  0  0  0  0  0  0  0
    0.0000    0.0000    0.0000 C   0  0  0  0  0  0  0  0  0  0  0  0
    0.0000    0.0000    0.0000 C   0  0  0  0  0  0  0  0  0  0  0  0
    0.0000    0.0000    0.0000 C   0  0  0  0  0  0  0  0  0  0  0  0
    0.0000    0.0000    0.0000 N   0  0  0  0  0  0  0  0  0  0  0  0
    0.0000    0.0000    0.0000 C   0  0  0  0  0  0  0  0  0  0  0  0
    0.0000    0.0000    0.0000 C   0  0  0  0  0  0  0  0  0  0  0  0
    0.0000    0.0000    0.0000 C   0  0  0  0  0  0  0  0  0  0  0  0
    0.0000    0.0000    0.0000 C   0  0  0  0  0  0  0  0  0  0  0  0
    0.0000    0.0000    0.0000 C   0  0  0  0  0  0  0  0  0  0  0  0
    0.0000    0.0000    0.0000 F   0  0  0  0  0  0  0  0  0  0  0  0
    0.0000    0.0000    0.0000 C   0  0  0  0  0  0  0  0  0  0  0  0
    0.0000    0.0000    0.0000 C   0  0  0  0  0  0  0  0  0  0  0  0
    0.0000    0.0000    0.0000 C   0  0  0  0  0  0  0  0  0  0  0  0
    0.0000    0.0000    0.0000 C   0  0  0  0  0  0  0  0  0  0  0  0
    0.0000    0.0000    0.0000 O   0  0  0  0  0  0  0  0  0  0  0  0
  1  2  1  0
  2  3  1  0
  3  4  1  0
  4  5  2  0
  5  6  1  0
  6  7  1  0
  6  8  2  0
  8  9  1  0
  8 10  1  0
 10 11  2  0
 11 12  1  0
 12 13  2  0
 12 14  1  0
 14 15  1  0
 15 16  1  0
 16 17  1  0
 17 18  1  0
 18 19  1  0
 19 20  1  0
 20 21  2  0
 21 22  1  0
 22 23  2  0
 23 24  1  0
 23 25  1  0
 25 26  2  0
 18 27  1  0
 27 28  1  0
 28 29  1  0
 11  4  1  0
 29 16  1  0
 26 20  1  0
M  END
>  <pIC50>  (175) 
5.43

>  <ChEMBL_ID>  (175) 
CHEMBL60889

>  <document_journal>  (175) 
None

>  <bao_endpoint>  (175) 
BAO_0000190

>  <potential_duplicate>  (175) 
False

>  <uo_units>  (175) 
UO_0000065

>  <canonical_smiles>  (175) 
CCOc1cc(N)c(Cl)cc1C(=O)NCC2CN(Cc3ccc(F)cc3)CCO2

>  <parent_molecule_chembl_id>  (175) 
CHEMBL60889

>  <assay_type>  (175) 
B

>  <src_id>  (175) 
15

>  <ligand_efficiency>  (175) 
{u'le': u'0.26', u'bei': u'12.88', u'sei': u'7.07', u'lle': u'2.5'}

>  <standard_flag>  (175) 
True

>  <molecule_chembl_id>  (175) 
CHEMBL60889

>  <target_organism>  (175) 
Homo sapiens

>  <standard_units>  (175) 
nM

>  <record_id>  (175) 
1539961

>  <document_chembl_id>  (175) 
CHEMBL1909046

>  <bao_format>  (175) 
BAO_0000249

>  <data_validity_description>  (175) 
None

>  <activity_id>  (175) 
7764995

>  <standard_type>  (175) 
IC50

>  <target_chembl_id>  (175) 
CHEMBL1867

>  <data_validity_comment>  (175) 
None

>  <published_value>  (175) 
3.6794

>  <document_year>  (175) 
None

>  <target_pref_name>  (175) 
Alpha-2a adrenergic receptor

>  <assay_chembl_id>  (175) 
CHEMBL1909088

>  <standard_relation>  (175) 
=

>  <assay_description>  (175) 
DRUGMATRIX: Alpha-2A adrenergic receptor radioligand binding (ligand: MK-912)

>  <published_relation>  (175) 
=

>  <standard_value>  (175) 
3679.4

>  <qudt_units>  (175) 
http://www.openphacts.org/units/Nanomolar

>  <target_tax_id>  (175) 
9606

>  <bao_label>  (175) 
cell membrane format

>  <published_units>  (175) 
uM

>  <pchembl_value>  (175) 
5.43

>  <published_type>  (175) 
IC50

>  <activity_comment>  (175) 
None

$$$$

     RDKit          

 25 28  0  0  0  0  0  0  0  0999 V2000
    0.0000    0.0000    0.0000 C   0  0  0  0  0  0  0  0  0  0  0  0
    0.0000    0.0000    0.0000 C   0  0  0  0  0  0  0  0  0  0  0  0
    0.0000    0.0000    0.0000 C   0  0  0  0  0  0  0  0  0  0  0  0
    0.0000    0.0000    0.0000 C   0  0  0  0  0  0  0  0  0  0  0  0
    0.0000    0.0000    0.0000 O   0  0  0  0  0  0  0  0  0  0  0  0
    0.0000    0.0000    0.0000 N   0  0  0  0  0  0  0  0  0  0  0  0
    0.0000    0.0000    0.0000 C   0  0  0  0  0  0  0  0  0  0  0  0
    0.0000    0.0000    0.0000 O   0  0  0  0  0  0  0  0  0  0  0  0
    0.0000    0.0000    0.0000 C   0  0  0  0  0  0  0  0  0  0  0  0
    0.0000    0.0000    0.0000 C   0  0  0  0  0  0  0  0  0  0  0  0
    0.0000    0.0000    0.0000 N   0  0  0  0  0  0  0  0  0  0  0  0
    0.0000    0.0000    0.0000 C   0  0  0  0  0  0  0  0  0  0  0  0
    0.0000    0.0000    0.0000 C   0  0  0  0  0  0  0  0  0  0  0  0
    0.0000    0.0000    0.0000 C   0  0  0  0  0  0  0  0  0  0  0  0
    0.0000    0.0000    0.0000 C   0  0  0  0  0  0  0  0  0  0  0  0
    0.0000    0.0000    0.0000 C   0  0  0  0  0  0  0  0  0  0  0  0
    0.0000    0.0000    0.0000 N   0  0  0  0  0  0  0  0  0  0  0  0
    0.0000    0.0000    0.0000 C   0  0  0  0  0  0  0  0  0  0  0  0
    0.0000    0.0000    0.0000 C   0  0  0  0  0  0  0  0  0  0  0  0
    0.0000    0.0000    0.0000 C   0  0  0  0  0  0  0  0  0  0  0  0
    0.0000    0.0000    0.0000 C   0  0  0  0  0  0  0  0  0  0  0  0
    0.0000    0.0000    0.0000 C   0  0  0  0  0  0  0  0  0  0  0  0
    0.0000    0.0000    0.0000 C   0  0  0  0  0  0  0  0  0  0  0  0
    0.0000    0.0000    0.0000 C   0  0  0  0  0  0  0  0  0  0  0  0
    0.0000    0.0000    0.0000 C   0  0  0  0  0  0  0  0  0  0  0  0
  1  2  1  0
  2  3  1  0
  3  4  1  0
  4  5  1  0
  3  6  1  0
  6  7  1  0
  7  8  2  0
  7  9  1  0
  9 10  1  0
 10 11  1  0
 11 12  1  0
 11 13  1  0
 13 14  1  0
 14 15  1  0
 15 16  2  0
 16 17  1  0
 17 18  1  0
 18 19  2  0
 19 20  1  0
 20 21  2  0
 21 22  1  0
 22 23  1  0
 23 24  2  0
 22 25  2  0
 24  9  1  0
 23 13  1  0
 25 15  1  0
 25 18  1  0
M  END
>  <pIC50>  (176) 
5.8

>  <ChEMBL_ID>  (176) 
CHEMBL1201356

>  <document_journal>  (176) 
None

>  <bao_endpoint>  (176) 
BAO_0000190

>  <potential_duplicate>  (176) 
False

>  <uo_units>  (176) 
UO_0000065

>  <canonical_smiles>  (176) 
CC[C@@H](CO)NC(=O)[C@H]1CN(C)[C@@H]2Cc3c[nH]c4cccc(C2=C1)c34

>  <parent_molecule_chembl_id>  (176) 
CHEMBL1201356

>  <assay_type>  (176) 
B

>  <src_id>  (176) 
15

>  <ligand_efficiency>  (176) 
{u'le': u'0.32', u'bei': u'17.08', u'sei': u'8.48', u'lle': u'3.74'}

>  <standard_flag>  (176) 
True

>  <molecule_chembl_id>  (176) 
CHEMBL1201356

>  <target_organism>  (176) 
Homo sapiens

>  <standard_units>  (176) 
nM

>  <record_id>  (176) 
1539937

>  <document_chembl_id>  (176) 
CHEMBL1909046

>  <bao_format>  (176) 
BAO_0000249

>  <data_validity_description>  (176) 
None

>  <activity_id>  (176) 
7766762

>  <standard_type>  (176) 
IC50

>  <target_chembl_id>  (176) 
CHEMBL1867

>  <data_validity_comment>  (176) 
None

>  <published_value>  (176) 
1.59

>  <document_year>  (176) 
None

>  <target_pref_name>  (176) 
Alpha-2a adrenergic receptor

>  <assay_chembl_id>  (176) 
CHEMBL1909088

>  <standard_relation>  (176) 
=

>  <assay_description>  (176) 
DRUGMATRIX: Alpha-2A adrenergic receptor radioligand binding (ligand: MK-912)

>  <published_relation>  (176) 
=

>  <standard_value>  (176) 
1590

>  <qudt_units>  (176) 
http://www.openphacts.org/units/Nanomolar

>  <target_tax_id>  (176) 
9606

>  <bao_label>  (176) 
cell membrane format

>  <published_units>  (176) 
uM

>  <pchembl_value>  (176) 
5.8

>  <published_type>  (176) 
IC50

>  <activity_comment>  (176) 
None

$$$$

     RDKit          

 36 40  0  0  0  0  0  0  0  0999 V2000
    0.0000    0.0000    0.0000 C   0  0  0  0  0  0  0  0  0  0  0  0
    0.0000    0.0000    0.0000 C   0  0  0  0  0  0  0  0  0  0  0  0
    0.0000    0.0000    0.0000 O   0  0  0  0  0  0  0  0  0  0  0  0
    0.0000    0.0000    0.0000 N   0  0  0  0  0  0  0  0  0  0  0  0
    0.0000    0.0000    0.0000 C   0  0  0  0  0  0  0  0  0  0  0  0
    0.0000    0.0000    0.0000 C   0  0  0  0  0  0  0  0  0  0  0  0
    0.0000    0.0000    0.0000 N   0  0  0  0  0  0  0  0  0  0  0  0
    0.0000    0.0000    0.0000 C   0  0  0  0  0  0  0  0  0  0  0  0
    0.0000    0.0000    0.0000 C   0  0  0  0  0  0  0  0  0  0  0  0
    0.0000    0.0000    0.0000 C   0  0  0  0  0  0  0  0  0  0  0  0
    0.0000    0.0000    0.0000 C   0  0  0  0  0  0  0  0  0  0  0  0
    0.0000    0.0000    0.0000 C   0  0  0  0  0  0  0  0  0  0  0  0
    0.0000    0.0000    0.0000 C   0  0  0  0  0  0  0  0  0  0  0  0
    0.0000    0.0000    0.0000 O   0  0  0  0  0  0  0  0  0  0  0  0
    0.0000    0.0000    0.0000 C   0  0  0  0  0  0  0  0  0  0  0  0
    0.0000    0.0000    0.0000 C   0  0  0  0  0  0  0  0  0  0  0  0
    0.0000    0.0000    0.0000 C   0  0  0  0  0  0  0  0  0  0  0  0
    0.0000    0.0000    0.0000 O   0  0  0  0  0  0  0  0  0  0  0  0
    0.0000    0.0000    0.0000 C   0  0  0  0  0  0  0  0  0  0  0  0
    0.0000    0.0000    0.0000 C   0  0  0  0  0  0  0  0  0  0  0  0
    0.0000    0.0000    0.0000 N   0  0  0  0  0  0  0  0  0  0  0  0
    0.0000    0.0000    0.0000 C   0  0  0  0  0  0  0  0  0  0  0  0
    0.0000    0.0000    0.0000 C   0  0  0  0  0  0  0  0  0  0  0  0
    0.0000    0.0000    0.0000 N   0  0  0  0  0  0  0  0  0  0  0  0
    0.0000    0.0000    0.0000 C   0  0  0  0  0  0  0  0  0  0  0  0
    0.0000    0.0000    0.0000 O   0  0  0  0  0  0  0  0  0  0  0  0
    0.0000    0.0000    0.0000 C   0  0  0  0  0  0  0  0  0  0  0  0
    0.0000    0.0000    0.0000 C   0  0  0  0  0  0  0  0  0  0  0  0
    0.0000    0.0000    0.0000 C   0  0  0  0  0  0  0  0  0  0  0  0
    0.0000    0.0000    0.0000 C   0  0  0  0  0  0  0  0  0  0  0  0
    0.0000    0.0000    0.0000 Cl  0  0  0  0  0  0  0  0  0  0  0  0
    0.0000    0.0000    0.0000 C   0  0  0  0  0  0  0  0  0  0  0  0
    0.0000    0.0000    0.0000 C   0  0  0  0  0  0  0  0  0  0  0  0
    0.0000    0.0000    0.0000 Cl  0  0  0  0  0  0  0  0  0  0  0  0
    0.0000    0.0000    0.0000 C   0  0  0  0  0  0  0  0  0  0  0  0
    0.0000    0.0000    0.0000 C   0  0  0  0  0  0  0  0  0  0  0  0
  1  2  1  0
  2  3  2  0
  2  4  1  0
  4  5  1  0
  5  6  1  0
  6  7  1  0
  7  8  1  0
  8  9  1  0
  7 10  1  0
 10 11  2  0
 11 12  1  0
 12 13  2  0
 13 14  1  0
 14 15  1  0
 15 16  1  0
 16 17  1  0
 17 18  1  0
 18 19  1  0
 19 20  1  0
 20 21  1  0
 21 22  1  0
 22 23  2  0
 23 24  1  0
 24 25  2  0
 19 26  1  0
 19 27  1  0
 27 28  2  0
 28 29  1  0
 29 30  2  0
 30 31  1  0
 30 32  1  0
 32 33  2  0
 33 34  1  0
 13 35  1  0
 35 36  2  0
  9  4  1  0
 36 10  1  0
 26 16  1  0
 25 21  1  0
 33 27  1  0
M  END
>  <pIC50>  (177) 
4.7

>  <ChEMBL_ID>  (177) 
CHEMBL295698

>  <document_journal>  (177) 
None

>  <bao_endpoint>  (177) 
BAO_0000190

>  <potential_duplicate>  (177) 
False

>  <uo_units>  (177) 
UO_0000065

>  <canonical_smiles>  (177) 
CC(=O)N1CCN(CC1)c2ccc(OC[C@@H]3CO[C@](Cn4ccnc4)(O3)c5ccc(Cl)cc5Cl)cc2

>  <parent_molecule_chembl_id>  (177) 
CHEMBL295698

>  <assay_type>  (177) 
B

>  <src_id>  (177) 
15

>  <ligand_efficiency>  (177) 
{u'le': u'0.18', u'bei': u'8.85', u'sei': u'6.81', u'lle': u'1.09'}

>  <standard_flag>  (177) 
True

>  <molecule_chembl_id>  (177) 
CHEMBL295698

>  <target_organism>  (177) 
Homo sapiens

>  <standard_units>  (177) 
nM

>  <record_id>  (177) 
1539864

>  <document_chembl_id>  (177) 
CHEMBL1909046

>  <bao_format>  (177) 
BAO_0000249

>  <data_validity_description>  (177) 
None

>  <activity_id>  (177) 
7767676

>  <standard_type>  (177) 
IC50

>  <target_chembl_id>  (177) 
CHEMBL1867

>  <data_validity_comment>  (177) 
None

>  <published_value>  (177) 
19.783

>  <document_year>  (177) 
None

>  <target_pref_name>  (177) 
Alpha-2a adrenergic receptor

>  <assay_chembl_id>  (177) 
CHEMBL1909088

>  <standard_relation>  (177) 
=

>  <assay_description>  (177) 
DRUGMATRIX: Alpha-2A adrenergic receptor radioligand binding (ligand: MK-912)

>  <published_relation>  (177) 
=

>  <standard_value>  (177) 
19783

>  <qudt_units>  (177) 
http://www.openphacts.org/units/Nanomolar

>  <target_tax_id>  (177) 
9606

>  <bao_label>  (177) 
cell membrane format

>  <published_units>  (177) 
uM

>  <pchembl_value>  (177) 
4.7

>  <published_type>  (177) 
IC50

>  <activity_comment>  (177) 
None

$$$$

     RDKit          

 22 25  0  0  0  0  0  0  0  0999 V2000
    0.0000    0.0000    0.0000 C   0  0  0  0  0  0  0  0  0  0  0  0
    0.0000    0.0000    0.0000 N   0  0  0  0  0  0  0  0  0  0  0  0
    0.0000    0.0000    0.0000 C   0  0  0  0  0  0  0  0  0  0  0  0
    0.0000    0.0000    0.0000 C   0  0  0  0  0  0  0  0  0  0  0  0
    0.0000    0.0000    0.0000 C   0  0  0  0  0  0  0  0  0  0  0  0
    0.0000    0.0000    0.0000 C   0  0  0  0  0  0  0  0  0  0  0  0
    0.0000    0.0000    0.0000 C   0  0  0  0  0  0  0  0  0  0  0  0
    0.0000    0.0000    0.0000 N   0  0  0  0  0  0  0  0  0  0  0  0
    0.0000    0.0000    0.0000 C   0  0  0  0  0  0  0  0  0  0  0  0
    0.0000    0.0000    0.0000 C   0  0  0  0  0  0  0  0  0  0  0  0
    0.0000    0.0000    0.0000 C   0  0  0  0  0  0  0  0  0  0  0  0
    0.0000    0.0000    0.0000 C   0  0  0  0  0  0  0  0  0  0  0  0
    0.0000    0.0000    0.0000 C   0  0  0  0  0  0  0  0  0  0  0  0
    0.0000    0.0000    0.0000 C   0  0  0  0  0  0  0  0  0  0  0  0
    0.0000    0.0000    0.0000 S   0  0  0  0  0  0  0  0  0  0  0  0
    0.0000    0.0000    0.0000 C   0  0  0  0  0  0  0  0  0  0  0  0
    0.0000    0.0000    0.0000 C   0  0  0  0  0  0  0  0  0  0  0  0
    0.0000    0.0000    0.0000 C   0  0  0  0  0  0  0  0  0  0  0  0
    0.0000    0.0000    0.0000 C   0  0  0  0  0  0  0  0  0  0  0  0
    0.0000    0.0000    0.0000 C   0  0  0  0  0  0  0  0  0  0  0  0
    0.0000    0.0000    0.0000 C   0  0  0  0  0  0  0  0  0  0  0  0
    0.0000    0.0000    0.0000 C   0  0  0  0  0  0  0  0  0  0  0  0
  1  2  1  0
  2  3  1  0
  3  4  1  0
  4  5  1  0
  5  6  1  0
  6  7  1  0
  7  8  1  0
  8  9  1  0
  9 10  2  0
 10 11  1  0
 11 12  2  0
 12 13  1  0
 13 14  2  0
 14 15  1  0
 15 16  1  0
 16 17  2  0
 17 18  1  0
 18 19  2  0
 19 20  1  0
 20 21  2  0
  6 22  1  0
 22  2  1  0
 21  8  1  0
 14  9  1  0
 21 16  1  0
M  END
>  <pIC50>  (178) 
5.84

>  <ChEMBL_ID>  (178) 
CHEMBL395110

>  <document_journal>  (178) 
None

>  <bao_endpoint>  (178) 
BAO_0000190

>  <potential_duplicate>  (178) 
False

>  <uo_units>  (178) 
UO_0000065

>  <canonical_smiles>  (178) 
CN1CCCC(CN2c3ccccc3Sc4ccccc24)C1

>  <parent_molecule_chembl_id>  (178) 
CHEMBL395110

>  <assay_type>  (178) 
B

>  <src_id>  (178) 
15

>  <ligand_efficiency>  (178) 
{u'le': u'0.36', u'bei': u'18.8', u'sei': u'18.37', u'lle': u'1.27'}

>  <standard_flag>  (178) 
True

>  <molecule_chembl_id>  (178) 
CHEMBL395110

>  <target_organism>  (178) 
Homo sapiens

>  <standard_units>  (178) 
nM

>  <record_id>  (178) 
1539921

>  <document_chembl_id>  (178) 
CHEMBL1909046

>  <bao_format>  (178) 
BAO_0000249

>  <data_validity_description>  (178) 
None

>  <activity_id>  (178) 
7768573

>  <standard_type>  (178) 
IC50

>  <target_chembl_id>  (178) 
CHEMBL1867

>  <data_validity_comment>  (178) 
None

>  <published_value>  (178) 
1.456

>  <document_year>  (178) 
None

>  <target_pref_name>  (178) 
Alpha-2a adrenergic receptor

>  <assay_chembl_id>  (178) 
CHEMBL1909088

>  <standard_relation>  (178) 
=

>  <assay_description>  (178) 
DRUGMATRIX: Alpha-2A adrenergic receptor radioligand binding (ligand: MK-912)

>  <published_relation>  (178) 
=

>  <standard_value>  (178) 
1456

>  <qudt_units>  (178) 
http://www.openphacts.org/units/Nanomolar

>  <target_tax_id>  (178) 
9606

>  <bao_label>  (178) 
cell membrane format

>  <published_units>  (178) 
uM

>  <pchembl_value>  (178) 
5.84

>  <published_type>  (178) 
IC50

>  <activity_comment>  (178) 
None

$$$$

     RDKit          

 18 19  0  0  0  0  0  0  0  0999 V2000
    0.0000    0.0000    0.0000 Cl  0  0  0  0  0  0  0  0  0  0  0  0
    0.0000    0.0000    0.0000 C   0  0  0  0  0  0  0  0  0  0  0  0
    0.0000    0.0000    0.0000 Cl  0  0  0  0  0  0  0  0  0  0  0  0
    0.0000    0.0000    0.0000 C   0  0  0  0  0  0  0  0  0  0  0  0
    0.0000    0.0000    0.0000 C   0  0  0  0  0  0  0  0  0  0  0  0
    0.0000    0.0000    0.0000 C   0  0  0  0  0  0  0  0  0  0  0  0
    0.0000    0.0000    0.0000 C   0  0  0  0  0  0  0  0  0  0  0  0
    0.0000    0.0000    0.0000 C   0  0  0  0  0  0  0  0  0  0  0  0
    0.0000    0.0000    0.0000 Cl  0  0  0  0  0  0  0  0  0  0  0  0
    0.0000    0.0000    0.0000 C   0  0  0  0  0  0  0  0  0  0  0  0
    0.0000    0.0000    0.0000 C   0  0  0  0  0  0  0  0  0  0  0  0
    0.0000    0.0000    0.0000 C   0  0  0  0  0  0  0  0  0  0  0  0
    0.0000    0.0000    0.0000 C   0  0  0  0  0  0  0  0  0  0  0  0
    0.0000    0.0000    0.0000 C   0  0  0  0  0  0  0  0  0  0  0  0
    0.0000    0.0000    0.0000 C   0  0  0  0  0  0  0  0  0  0  0  0
    0.0000    0.0000    0.0000 C   0  0  0  0  0  0  0  0  0  0  0  0
    0.0000    0.0000    0.0000 C   0  0  0  0  0  0  0  0  0  0  0  0
    0.0000    0.0000    0.0000 Cl  0  0  0  0  0  0  0  0  0  0  0  0
  1  2  1  0
  2  3  1  0
  2  4  1  0
  4  5  1  0
  5  6  2  0
  6  7  1  0
  7  8  2  0
  8  9  1  0
  8 10  1  0
 10 11  2  0
  4 12  1  0
 12 13  2  0
 13 14  1  0
 14 15  2  0
 15 16  1  0
 16 17  2  0
 17 18  1  0
 11  5  1  0
 17 12  1  0
M  END
>  <pIC50>  (179) 
5.13

>  <ChEMBL_ID>  (179) 
CHEMBL1670

>  <document_journal>  (179) 
None

>  <bao_endpoint>  (179) 
BAO_0000190

>  <potential_duplicate>  (179) 
False

>  <uo_units>  (179) 
UO_0000065

>  <canonical_smiles>  (179) 
ClC(Cl)C(c1ccc(Cl)cc1)c2ccccc2Cl

>  <parent_molecule_chembl_id>  (179) 
CHEMBL1670

>  <assay_type>  (179) 
B

>  <src_id>  (179) 
15

>  <ligand_efficiency>  (179) 
{u'le': u'0.39', u'bei': u'16.04', u'sei': None, u'lle': u'-0.62'}

>  <standard_flag>  (179) 
True

>  <molecule_chembl_id>  (179) 
CHEMBL1670

>  <target_organism>  (179) 
Homo sapiens

>  <standard_units>  (179) 
nM

>  <record_id>  (179) 
1539955

>  <document_chembl_id>  (179) 
CHEMBL1909046

>  <bao_format>  (179) 
BAO_0000249

>  <data_validity_description>  (179) 
None

>  <activity_id>  (179) 
7773452

>  <standard_type>  (179) 
IC50

>  <target_chembl_id>  (179) 
CHEMBL1867

>  <data_validity_comment>  (179) 
None

>  <published_value>  (179) 
7.347

>  <document_year>  (179) 
None

>  <target_pref_name>  (179) 
Alpha-2a adrenergic receptor

>  <assay_chembl_id>  (179) 
CHEMBL1909088

>  <standard_relation>  (179) 
=

>  <assay_description>  (179) 
DRUGMATRIX: Alpha-2A adrenergic receptor radioligand binding (ligand: MK-912)

>  <published_relation>  (179) 
=

>  <standard_value>  (179) 
7347

>  <qudt_units>  (179) 
http://www.openphacts.org/units/Nanomolar

>  <target_tax_id>  (179) 
9606

>  <bao_label>  (179) 
cell membrane format

>  <published_units>  (179) 
uM

>  <pchembl_value>  (179) 
5.13

>  <published_type>  (179) 
IC50

>  <activity_comment>  (179) 
None

$$$$

     RDKit          

 26 29  0  0  0  0  0  0  0  0999 V2000
    0.0000    0.0000    0.0000 C   0  0  0  0  0  0  0  0  0  0  0  0
    0.0000    0.0000    0.0000 C   0  0  0  0  0  0  0  0  0  0  0  0
    0.0000    0.0000    0.0000 C   0  0  0  0  0  0  0  0  0  0  0  0
    0.0000    0.0000    0.0000 C   0  0  0  0  0  0  0  0  0  0  0  0
    0.0000    0.0000    0.0000 O   0  0  0  0  0  0  0  0  0  0  0  0
    0.0000    0.0000    0.0000 N   0  0  0  0  0  0  0  0  0  0  0  0
    0.0000    0.0000    0.0000 C   0  0  0  0  0  0  0  0  0  0  0  0
    0.0000    0.0000    0.0000 O   0  0  0  0  0  0  0  0  0  0  0  0
    0.0000    0.0000    0.0000 C   0  0  0  0  0  0  0  0  0  0  0  0
    0.0000    0.0000    0.0000 C   0  0  0  0  0  0  0  0  0  0  0  0
    0.0000    0.0000    0.0000 N   0  0  0  0  0  0  0  0  0  0  0  0
    0.0000    0.0000    0.0000 C   0  0  0  0  0  0  0  0  0  0  0  0
    0.0000    0.0000    0.0000 C   0  0  0  0  0  0  0  0  0  0  0  0
    0.0000    0.0000    0.0000 C   0  0  0  0  0  0  0  0  0  0  0  0
    0.0000    0.0000    0.0000 C   0  0  0  0  0  0  0  0  0  0  0  0
    0.0000    0.0000    0.0000 C   0  0  0  0  0  0  0  0  0  0  0  0
    0.0000    0.0000    0.0000 N   0  0  0  0  0  0  0  0  0  0  0  0
    0.0000    0.0000    0.0000 C   0  0  0  0  0  0  0  0  0  0  0  0
    0.0000    0.0000    0.0000 C   0  0  0  0  0  0  0  0  0  0  0  0
    0.0000    0.0000    0.0000 C   0  0  0  0  0  0  0  0  0  0  0  0
    0.0000    0.0000    0.0000 C   0  0  0  0  0  0  0  0  0  0  0  0
    0.0000    0.0000    0.0000 C   0  0  0  0  0  0  0  0  0  0  0  0
    0.0000    0.0000    0.0000 C   0  0  0  0  0  0  0  0  0  0  0  0
    0.0000    0.0000    0.0000 C   0  0  0  0  0  0  0  0  0  0  0  0
    0.0000    0.0000    0.0000 C   0  0  0  0  0  0  0  0  0  0  0  0
    0.0000    0.0000    0.0000 C   0  0  0  0  0  0  0  0  0  0  0  0
  1  2  1  0
  2  3  1  0
  3  4  1  0
  4  5  1  0
  3  6  1  0
  6  7  1  0
  7  8  2  0
  7  9  1  0
  9 10  1  0
 10 11  1  0
 11 12  1  0
 11 13  1  0
 13 14  1  0
 14 15  1  0
 15 16  2  0
 16 17  1  0
 17 18  1  0
 17 19  1  0
 19 20  2  0
 20 21  1  0
 21 22  2  0
 22 23  1  0
 23 24  1  0
 24 25  2  0
 23 26  2  0
 25  9  1  0
 24 13  1  0
 26 15  1  0
 26 19  1  0
M  END
>  <pIC50>  (180) 
5.79

>  <ChEMBL_ID>  (180) 
CHEMBL1065

>  <document_journal>  (180) 
None

>  <bao_endpoint>  (180) 
BAO_0000190

>  <potential_duplicate>  (180) 
False

>  <uo_units>  (180) 
UO_0000065

>  <canonical_smiles>  (180) 
CC[C@@H](CO)NC(=O)[C@H]1CN(C)[C@@H]2Cc3cn(C)c4cccc(C2=C1)c34

>  <parent_molecule_chembl_id>  (180) 
CHEMBL1065

>  <assay_type>  (180) 
B

>  <src_id>  (180) 
15

>  <ligand_efficiency>  (180) 
{u'le': u'0.3', u'bei': u'16.37', u'sei': u'10.07', u'lle': u'3.52'}

>  <standard_flag>  (180) 
True

>  <molecule_chembl_id>  (180) 
CHEMBL1065

>  <target_organism>  (180) 
Homo sapiens

>  <standard_units>  (180) 
nM

>  <record_id>  (180) 
1539940

>  <document_chembl_id>  (180) 
CHEMBL1909046

>  <bao_format>  (180) 
BAO_0000249

>  <data_validity_description>  (180) 
None

>  <activity_id>  (180) 
7779521

>  <standard_type>  (180) 
IC50

>  <target_chembl_id>  (180) 
CHEMBL1867

>  <data_validity_comment>  (180) 
None

>  <published_value>  (180) 
1.631

>  <document_year>  (180) 
None

>  <target_pref_name>  (180) 
Alpha-2a adrenergic receptor

>  <assay_chembl_id>  (180) 
CHEMBL1909088

>  <standard_relation>  (180) 
=

>  <assay_description>  (180) 
DRUGMATRIX: Alpha-2A adrenergic receptor radioligand binding (ligand: MK-912)

>  <published_relation>  (180) 
=

>  <standard_value>  (180) 
1631

>  <qudt_units>  (180) 
http://www.openphacts.org/units/Nanomolar

>  <target_tax_id>  (180) 
9606

>  <bao_label>  (180) 
cell membrane format

>  <published_units>  (180) 
uM

>  <pchembl_value>  (180) 
5.79

>  <published_type>  (180) 
IC50

>  <activity_comment>  (180) 
None

$$$$

     RDKit          

 22 25  0  0  0  0  0  0  0  0999 V2000
    0.0000    0.0000    0.0000 C   0  0  0  0  0  0  0  0  0  0  0  0
    0.0000    0.0000    0.0000 N   0  0  0  0  0  0  0  0  0  0  0  0
    0.0000    0.0000    0.0000 C   0  0  0  0  0  0  0  0  0  0  0  0
    0.0000    0.0000    0.0000 C   0  0  0  0  0  0  0  0  0  0  0  0
    0.0000    0.0000    0.0000 C   0  0  0  0  0  0  0  0  0  0  0  0
    0.0000    0.0000    0.0000 C   0  0  0  0  0  0  0  0  0  0  0  0
    0.0000    0.0000    0.0000 C   0  0  0  0  0  0  0  0  0  0  0  0
    0.0000    0.0000    0.0000 C   0  0  0  0  0  0  0  0  0  0  0  0
    0.0000    0.0000    0.0000 C   0  0  0  0  0  0  0  0  0  0  0  0
    0.0000    0.0000    0.0000 C   0  0  0  0  0  0  0  0  0  0  0  0
    0.0000    0.0000    0.0000 C   0  0  0  0  0  0  0  0  0  0  0  0
    0.0000    0.0000    0.0000 C   0  0  0  0  0  0  0  0  0  0  0  0
    0.0000    0.0000    0.0000 C   0  0  0  0  0  0  0  0  0  0  0  0
    0.0000    0.0000    0.0000 C   0  0  0  0  0  0  0  0  0  0  0  0
    0.0000    0.0000    0.0000 O   0  0  0  0  0  0  0  0  0  0  0  0
    0.0000    0.0000    0.0000 C   0  0  0  0  0  0  0  0  0  0  0  0
    0.0000    0.0000    0.0000 S   0  0  0  0  0  0  0  0  0  0  0  0
    0.0000    0.0000    0.0000 C   0  0  0  0  0  0  0  0  0  0  0  0
    0.0000    0.0000    0.0000 C   0  0  0  0  0  0  0  0  0  0  0  0
    0.0000    0.0000    0.0000 C   0  0  0  0  0  0  0  0  0  0  0  0
    0.0000    0.0000    0.0000 C   0  0  0  0  0  0  0  0  0  0  0  0
    0.0000    0.0000    0.0000 C   0  0  0  0  0  0  0  0  0  0  0  0
  1  2  1  0
  2  3  1  0
  3  4  1  0
  4  5  1  0
  5  6  2  3
  6  7  1  0
  7  8  2  0
  8  9  1  0
  9 10  2  0
 10 11  1  0
 11 12  2  0
 12 13  1  0
 13 14  1  0
 14 15  2  0
 14 16  1  0
 16 17  1  0
 17 18  1  0
 18 19  2  0
 19 20  1  0
  5 21  1  0
 21 22  1  0
 22  2  1  0
 20  6  1  0
 12  7  1  0
 20 16  2  0
M  END
>  <pIC50>  (181) 
5.66

>  <ChEMBL_ID>  (181) 
CHEMBL534

>  <document_journal>  (181) 
None

>  <bao_endpoint>  (181) 
BAO_0000190

>  <potential_duplicate>  (181) 
False

>  <uo_units>  (181) 
UO_0000065

>  <canonical_smiles>  (181) 
CN1CCC(=C2c3ccccc3CC(=O)c4sccc24)CC1

>  <parent_molecule_chembl_id>  (181) 
CHEMBL534

>  <assay_type>  (181) 
B

>  <src_id>  (181) 
15

>  <ligand_efficiency>  (181) 
{u'le': u'0.35', u'bei': u'18.29', u'sei': u'11.66', u'lle': u'1.89'}

>  <standard_flag>  (181) 
True

>  <molecule_chembl_id>  (181) 
CHEMBL534

>  <target_organism>  (181) 
Homo sapiens

>  <standard_units>  (181) 
nM

>  <record_id>  (181) 
1539867

>  <document_chembl_id>  (181) 
CHEMBL1909046

>  <bao_format>  (181) 
BAO_0000249

>  <data_validity_description>  (181) 
None

>  <activity_id>  (181) 
7780439

>  <standard_type>  (181) 
IC50

>  <target_chembl_id>  (181) 
CHEMBL1867

>  <data_validity_comment>  (181) 
None

>  <published_value>  (181) 
2.187

>  <document_year>  (181) 
None

>  <target_pref_name>  (181) 
Alpha-2a adrenergic receptor

>  <assay_chembl_id>  (181) 
CHEMBL1909088

>  <standard_relation>  (181) 
=

>  <assay_description>  (181) 
DRUGMATRIX: Alpha-2A adrenergic receptor radioligand binding (ligand: MK-912)

>  <published_relation>  (181) 
=

>  <standard_value>  (181) 
2187

>  <qudt_units>  (181) 
http://www.openphacts.org/units/Nanomolar

>  <target_tax_id>  (181) 
9606

>  <bao_label>  (181) 
cell membrane format

>  <published_units>  (181) 
uM

>  <pchembl_value>  (181) 
5.66

>  <published_type>  (181) 
IC50

>  <activity_comment>  (181) 
None

$$$$

     RDKit          

 28 31  0  0  0  0  0  0  0  0999 V2000
    0.0000    0.0000    0.0000 F   0  0  0  0  0  0  0  0  0  0  0  0
    0.0000    0.0000    0.0000 C   0  0  0  0  0  0  0  0  0  0  0  0
    0.0000    0.0000    0.0000 C   0  0  0  0  0  0  0  0  0  0  0  0
    0.0000    0.0000    0.0000 C   0  0  0  0  0  0  0  0  0  0  0  0
    0.0000    0.0000    0.0000 C   0  0  0  0  0  0  0  0  0  0  0  0
    0.0000    0.0000    0.0000 S   0  0  0  0  0  0  0  0  0  0  0  0
    0.0000    0.0000    0.0000 C   0  0  0  0  0  0  0  0  0  0  0  0
    0.0000    0.0000    0.0000 N   0  0  0  0  0  0  0  0  0  0  0  0
    0.0000    0.0000    0.0000 N   0  0  0  0  0  0  0  0  0  0  0  0
    0.0000    0.0000    0.0000 C   0  0  0  0  0  0  0  0  0  0  0  0
    0.0000    0.0000    0.0000 N   0  0  0  0  0  0  0  0  0  0  0  0
    0.0000    0.0000    0.0000 C   0  0  0  0  0  0  0  0  0  0  0  0
    0.0000    0.0000    0.0000 O   0  0  0  0  0  0  0  0  0  0  0  0
    0.0000    0.0000    0.0000 C   0  0  0  0  0  0  0  0  0  0  0  0
    0.0000    0.0000    0.0000 C   0  0  0  0  0  0  0  0  0  0  0  0
    0.0000    0.0000    0.0000 C   0  0  0  0  0  0  0  0  0  0  0  0
    0.0000    0.0000    0.0000 C   0  0  0  0  0  0  0  0  0  0  0  0
    0.0000    0.0000    0.0000 C   0  0  0  0  0  0  0  0  0  0  0  0
    0.0000    0.0000    0.0000 C   0  0  0  0  0  0  0  0  0  0  0  0
    0.0000    0.0000    0.0000 Cl  0  0  0  0  0  0  0  0  0  0  0  0
    0.0000    0.0000    0.0000 C   0  0  0  0  0  0  0  0  0  0  0  0
    0.0000    0.0000    0.0000 C   0  0  0  0  0  0  0  0  0  0  0  0
    0.0000    0.0000    0.0000 C   0  0  0  0  0  0  0  0  0  0  0  0
    0.0000    0.0000    0.0000 C   0  0  0  0  0  0  0  0  0  0  0  0
    0.0000    0.0000    0.0000 Cl  0  0  0  0  0  0  0  0  0  0  0  0
    0.0000    0.0000    0.0000 C   0  0  0  0  0  0  0  0  0  0  0  0
    0.0000    0.0000    0.0000 F   0  0  0  0  0  0  0  0  0  0  0  0
    0.0000    0.0000    0.0000 C   0  0  0  0  0  0  0  0  0  0  0  0
  1  2  1  0
  2  3  2  0
  3  4  1  0
  4  5  2  0
  5  6  1  0
  6  7  1  0
  7  8  2  0
  8  9  1  0
  9 10  1  0
 10 11  2  0
 11 12  1  0
 12 13  2  0
 12 14  1  0
 14 15  2  0
 15 16  1  0
 16 17  2  0
 14 18  1  0
 18 19  2  0
 19 20  1  0
 19 21  1  0
 21 22  2  0
 22 23  1  0
 23 24  2  0
 24 25  1  0
  5 26  1  0
 26 27  1  0
 26 28  2  0
 28  2  1  0
 17  7  1  0
 15  9  1  0
 24 18  1  0
M  END
>  <pIC50>  (182) 
4.47

>  <ChEMBL_ID>  (182) 
CHEMBL119385

>  <document_journal>  (182) 
None

>  <bao_endpoint>  (182) 
BAO_0000190

>  <potential_duplicate>  (182) 
False

>  <uo_units>  (182) 
UO_0000065

>  <canonical_smiles>  (182) 
Fc1ccc(SC2=NN3C=NC(=O)C(=C3C=C2)c4c(Cl)cccc4Cl)c(F)c1

>  <parent_molecule_chembl_id>  (182) 
CHEMBL119385

>  <assay_type>  (182) 
B

>  <src_id>  (182) 
15

>  <ligand_efficiency>  (182) 
{u'le': u'0.22', u'bei': u'10.24', u'sei': u'6.35', u'lle': u'-0.87'}

>  <standard_flag>  (182) 
True

>  <molecule_chembl_id>  (182) 
CHEMBL119385

>  <target_organism>  (182) 
Homo sapiens

>  <standard_units>  (182) 
nM

>  <record_id>  (182) 
1540275

>  <document_chembl_id>  (182) 
CHEMBL1909046

>  <bao_format>  (182) 
BAO_0000249

>  <data_validity_description>  (182) 
None

>  <activity_id>  (182) 
7787404

>  <standard_type>  (182) 
IC50

>  <target_chembl_id>  (182) 
CHEMBL1867

>  <data_validity_comment>  (182) 
None

>  <published_value>  (182) 
34.167

>  <document_year>  (182) 
None

>  <target_pref_name>  (182) 
Alpha-2a adrenergic receptor

>  <assay_chembl_id>  (182) 
CHEMBL1909088

>  <standard_relation>  (182) 
=

>  <assay_description>  (182) 
DRUGMATRIX: Alpha-2A adrenergic receptor radioligand binding (ligand: MK-912)

>  <published_relation>  (182) 
=

>  <standard_value>  (182) 
34167

>  <qudt_units>  (182) 
http://www.openphacts.org/units/Nanomolar

>  <target_tax_id>  (182) 
9606

>  <bao_label>  (182) 
cell membrane format

>  <published_units>  (182) 
uM

>  <pchembl_value>  (182) 
4.47

>  <published_type>  (182) 
IC50

>  <activity_comment>  (182) 
None

$$$$

     RDKit          

 26 29  0  0  0  0  0  0  0  0999 V2000
    0.0000    0.0000    0.0000 Cl  0  0  0  0  0  0  0  0  0  0  0  0
    0.0000    0.0000    0.0000 C   0  0  0  0  0  0  0  0  0  0  0  0
    0.0000    0.0000    0.0000 C   0  0  0  0  0  0  0  0  0  0  0  0
    0.0000    0.0000    0.0000 C   0  0  0  0  0  0  0  0  0  0  0  0
    0.0000    0.0000    0.0000 C   0  0  0  0  0  0  0  0  0  0  0  0
    0.0000    0.0000    0.0000 C   0  0  0  0  0  0  0  0  0  0  0  0
    0.0000    0.0000    0.0000 C   0  0  0  0  0  0  0  0  0  0  0  0
    0.0000    0.0000    0.0000 N   0  0  0  0  0  0  0  0  0  0  0  0
    0.0000    0.0000    0.0000 C   0  0  0  0  0  0  0  0  0  0  0  0
    0.0000    0.0000    0.0000 C   0  0  0  0  0  0  0  0  0  0  0  0
    0.0000    0.0000    0.0000 N   0  0  0  0  0  0  0  0  0  0  0  0
    0.0000    0.0000    0.0000 C   0  0  0  0  0  0  0  0  0  0  0  0
    0.0000    0.0000    0.0000 C   0  0  0  0  0  0  0  0  0  0  0  0
    0.0000    0.0000    0.0000 C   0  0  0  0  0  0  0  0  0  0  0  0
    0.0000    0.0000    0.0000 N   0  0  0  0  0  0  0  0  0  0  0  0
    0.0000    0.0000    0.0000 N   0  0  0  0  0  0  0  0  0  0  0  0
    0.0000    0.0000    0.0000 C   0  0  0  0  0  0  0  0  0  0  0  0
    0.0000    0.0000    0.0000 C   0  0  0  0  0  0  0  0  0  0  0  0
    0.0000    0.0000    0.0000 C   0  0  0  0  0  0  0  0  0  0  0  0
    0.0000    0.0000    0.0000 C   0  0  0  0  0  0  0  0  0  0  0  0
    0.0000    0.0000    0.0000 C   0  0  0  0  0  0  0  0  0  0  0  0
    0.0000    0.0000    0.0000 N   0  0  0  0  0  0  0  0  0  0  0  0
    0.0000    0.0000    0.0000 C   0  0  0  0  0  0  0  0  0  0  0  0
    0.0000    0.0000    0.0000 O   0  0  0  0  0  0  0  0  0  0  0  0
    0.0000    0.0000    0.0000 C   0  0  0  0  0  0  0  0  0  0  0  0
    0.0000    0.0000    0.0000 C   0  0  0  0  0  0  0  0  0  0  0  0
  1  2  1  0
  2  3  2  0
  3  4  1  0
  4  5  2  0
  5  6  1  0
  6  7  2  0
  6  8  1  0
  8  9  1  0
  9 10  1  0
 10 11  1  0
 11 12  1  0
 12 13  1  0
 13 14  1  0
 14 15  1  0
 15 16  1  0
 16 17  2  0
 17 18  1  0
 18 19  2  0
 19 20  1  0
 20 21  2  0
 21 22  1  0
 22 23  1  0
 23 24  2  0
 11 25  1  0
 25 26  1  0
  7  2  1  0
 26  8  1  0
 23 15  1  0
 22 17  1  0
M  END
>  <pIC50>  (183) 
6.04

>  <ChEMBL_ID>  (183) 
CHEMBL621

>  <document_journal>  (183) 
None

>  <bao_endpoint>  (183) 
BAO_0000190

>  <potential_duplicate>  (183) 
False

>  <uo_units>  (183) 
UO_0000065

>  <canonical_smiles>  (183) 
Clc1cccc(c1)N2CCN(CCCN3N=C4C=CC=CN4C3=O)CC2

>  <parent_molecule_chembl_id>  (183) 
CHEMBL621

>  <assay_type>  (183) 
B

>  <src_id>  (183) 
15

>  <ligand_efficiency>  (183) 
{u'le': u'0.32', u'bei': u'16.25', u'sei': u'14.25', u'lle': u'3.62'}

>  <standard_flag>  (183) 
True

>  <molecule_chembl_id>  (183) 
CHEMBL621

>  <target_organism>  (183) 
Homo sapiens

>  <standard_units>  (183) 
nM

>  <record_id>  (183) 
1540237

>  <document_chembl_id>  (183) 
CHEMBL1909046

>  <bao_format>  (183) 
BAO_0000249

>  <data_validity_description>  (183) 
None

>  <activity_id>  (183) 
7790545

>  <standard_type>  (183) 
IC50

>  <target_chembl_id>  (183) 
CHEMBL1867

>  <data_validity_comment>  (183) 
None

>  <published_value>  (183) 
0.909

>  <document_year>  (183) 
None

>  <target_pref_name>  (183) 
Alpha-2a adrenergic receptor

>  <assay_chembl_id>  (183) 
CHEMBL1909088

>  <standard_relation>  (183) 
=

>  <assay_description>  (183) 
DRUGMATRIX: Alpha-2A adrenergic receptor radioligand binding (ligand: MK-912)

>  <published_relation>  (183) 
=

>  <standard_value>  (183) 
909

>  <qudt_units>  (183) 
http://www.openphacts.org/units/Nanomolar

>  <target_tax_id>  (183) 
9606

>  <bao_label>  (183) 
cell membrane format

>  <published_units>  (183) 
uM

>  <pchembl_value>  (183) 
6.04

>  <published_type>  (183) 
IC50

>  <activity_comment>  (183) 
None

$$$$

     RDKit          

 33 34  0  0  0  0  0  0  0  0999 V2000
    0.0000    0.0000    0.0000 C   0  0  0  0  0  0  0  0  0  0  0  0
    0.0000    0.0000    0.0000 O   0  0  0  0  0  0  0  0  0  0  0  0
    0.0000    0.0000    0.0000 C   0  0  0  0  0  0  0  0  0  0  0  0
    0.0000    0.0000    0.0000 C   0  0  0  0  0  0  0  0  0  0  0  0
    0.0000    0.0000    0.0000 C   0  0  0  0  0  0  0  0  0  0  0  0
    0.0000    0.0000    0.0000 C   0  0  0  0  0  0  0  0  0  0  0  0
    0.0000    0.0000    0.0000 C   0  0  0  0  0  0  0  0  0  0  0  0
    0.0000    0.0000    0.0000 C   0  0  0  0  0  0  0  0  0  0  0  0
    0.0000    0.0000    0.0000 N   0  0  0  0  0  0  0  0  0  0  0  0
    0.0000    0.0000    0.0000 C   0  0  0  0  0  0  0  0  0  0  0  0
    0.0000    0.0000    0.0000 C   0  0  0  0  0  0  0  0  0  0  0  0
    0.0000    0.0000    0.0000 C   0  0  0  0  0  0  0  0  0  0  0  0
    0.0000    0.0000    0.0000 C   0  0  0  0  0  0  0  0  0  0  0  0
    0.0000    0.0000    0.0000 C   0  0  0  0  0  0  0  0  0  0  0  0
    0.0000    0.0000    0.0000 C   0  0  0  0  0  0  0  0  0  0  0  0
    0.0000    0.0000    0.0000 N   0  0  0  0  0  0  0  0  0  0  0  0
    0.0000    0.0000    0.0000 C   0  0  0  0  0  0  0  0  0  0  0  0
    0.0000    0.0000    0.0000 C   0  0  0  0  0  0  0  0  0  0  0  0
    0.0000    0.0000    0.0000 C   0  0  0  0  0  0  0  0  0  0  0  0
    0.0000    0.0000    0.0000 C   0  0  0  0  0  0  0  0  0  0  0  0
    0.0000    0.0000    0.0000 C   0  0  0  0  0  0  0  0  0  0  0  0
    0.0000    0.0000    0.0000 C   0  0  0  0  0  0  0  0  0  0  0  0
    0.0000    0.0000    0.0000 C   0  0  0  0  0  0  0  0  0  0  0  0
    0.0000    0.0000    0.0000 O   0  0  0  0  0  0  0  0  0  0  0  0
    0.0000    0.0000    0.0000 C   0  0  0  0  0  0  0  0  0  0  0  0
    0.0000    0.0000    0.0000 C   0  0  0  0  0  0  0  0  0  0  0  0
    0.0000    0.0000    0.0000 O   0  0  0  0  0  0  0  0  0  0  0  0
    0.0000    0.0000    0.0000 C   0  0  0  0  0  0  0  0  0  0  0  0
    0.0000    0.0000    0.0000 C   0  0  0  0  0  0  0  0  0  0  0  0
    0.0000    0.0000    0.0000 C   0  0  0  0  0  0  0  0  0  0  0  0
    0.0000    0.0000    0.0000 C   0  0  0  0  0  0  0  0  0  0  0  0
    0.0000    0.0000    0.0000 O   0  0  0  0  0  0  0  0  0  0  0  0
    0.0000    0.0000    0.0000 C   0  0  0  0  0  0  0  0  0  0  0  0
  1  2  1  0
  2  3  1  0
  3  4  2  0
  4  5  1  0
  5  6  2  0
  6  7  1  0
  7  8  1  0
  8  9  1  0
  9 10  1  0
  9 11  1  0
 11 12  1  0
 12 13  1  0
 13 14  1  0
 14 15  1  0
 15 16  3  0
 14 17  1  0
 17 18  1  0
 17 19  1  0
 14 20  1  0
 20 21  2  0
 21 22  1  0
 22 23  2  0
 23 24  1  0
 24 25  1  0
 23 26  1  0
 26 27  1  0
 27 28  1  0
 26 29  2  0
  6 30  1  0
 30 31  2  0
 31 32  1  0
 32 33  1  0
 31  3  1  0
 29 20  1  0
M  END
>  <pIC50>  (184) 
6.24

>  <ChEMBL_ID>  (184) 
CHEMBL6966

>  <document_journal>  (184) 
None

>  <bao_endpoint>  (184) 
BAO_0000190

>  <potential_duplicate>  (184) 
False

>  <uo_units>  (184) 
UO_0000065

>  <canonical_smiles>  (184) 
COc1ccc(CCN(C)CCCC(C#N)(C(C)C)c2ccc(OC)c(OC)c2)cc1OC

>  <parent_molecule_chembl_id>  (184) 
CHEMBL6966

>  <assay_type>  (184) 
B

>  <src_id>  (184) 
15

>  <ligand_efficiency>  (184) 
{u'le': u'0.26', u'bei': u'13.72', u'sei': u'9.75', u'lle': u'0.71'}

>  <standard_flag>  (184) 
True

>  <molecule_chembl_id>  (184) 
CHEMBL6966

>  <target_organism>  (184) 
Homo sapiens

>  <standard_units>  (184) 
nM

>  <record_id>  (184) 
1540270

>  <document_chembl_id>  (184) 
CHEMBL1909046

>  <bao_format>  (184) 
BAO_0000249

>  <data_validity_description>  (184) 
None

>  <activity_id>  (184) 
7792878

>  <standard_type>  (184) 
IC50

>  <target_chembl_id>  (184) 
CHEMBL1867

>  <data_validity_comment>  (184) 
None

>  <published_value>  (184) 
0.579

>  <document_year>  (184) 
None

>  <target_pref_name>  (184) 
Alpha-2a adrenergic receptor

>  <assay_chembl_id>  (184) 
CHEMBL1909088

>  <standard_relation>  (184) 
=

>  <assay_description>  (184) 
DRUGMATRIX: Alpha-2A adrenergic receptor radioligand binding (ligand: MK-912)

>  <published_relation>  (184) 
=

>  <standard_value>  (184) 
579

>  <qudt_units>  (184) 
http://www.openphacts.org/units/Nanomolar

>  <target_tax_id>  (184) 
9606

>  <bao_label>  (184) 
cell membrane format

>  <published_units>  (184) 
uM

>  <pchembl_value>  (184) 
6.24

>  <published_type>  (184) 
IC50

>  <activity_comment>  (184) 
None

$$$$

     RDKit          

 26 30  0  0  0  0  0  0  0  0999 V2000
    0.0000    0.0000    0.0000 C   0  0  0  0  0  0  0  0  0  0  0  0
    0.0000    0.0000    0.0000 O   0  0  0  0  0  0  0  0  0  0  0  0
    0.0000    0.0000    0.0000 C   0  0  0  0  0  0  0  0  0  0  0  0
    0.0000    0.0000    0.0000 O   0  0  0  0  0  0  0  0  0  0  0  0
    0.0000    0.0000    0.0000 C   0  0  0  0  0  0  0  0  0  0  0  0
    0.0000    0.0000    0.0000 C   0  0  0  0  0  0  0  0  0  0  0  0
    0.0000    0.0000    0.0000 O   0  0  0  0  0  0  0  0  0  0  0  0
    0.0000    0.0000    0.0000 C   0  0  0  0  0  0  0  0  0  0  0  0
    0.0000    0.0000    0.0000 C   0  0  0  0  0  0  0  0  0  0  0  0
    0.0000    0.0000    0.0000 C   0  0  0  0  0  0  0  0  0  0  0  0
    0.0000    0.0000    0.0000 C   0  0  0  0  0  0  0  0  0  0  0  0
    0.0000    0.0000    0.0000 N   0  0  0  0  0  0  0  0  0  0  0  0
    0.0000    0.0000    0.0000 C   0  0  0  0  0  0  0  0  0  0  0  0
    0.0000    0.0000    0.0000 C   0  0  0  0  0  0  0  0  0  0  0  0
    0.0000    0.0000    0.0000 C   0  0  0  0  0  0  0  0  0  0  0  0
    0.0000    0.0000    0.0000 C   0  0  0  0  0  0  0  0  0  0  0  0
    0.0000    0.0000    0.0000 N   0  0  0  0  0  0  0  0  0  0  0  0
    0.0000    0.0000    0.0000 C   0  0  0  0  0  0  0  0  0  0  0  0
    0.0000    0.0000    0.0000 C   0  0  0  0  0  0  0  0  0  0  0  0
    0.0000    0.0000    0.0000 C   0  0  0  0  0  0  0  0  0  0  0  0
    0.0000    0.0000    0.0000 C   0  0  0  0  0  0  0  0  0  0  0  0
    0.0000    0.0000    0.0000 C   0  0  0  0  0  0  0  0  0  0  0  0
    0.0000    0.0000    0.0000 C   0  0  0  0  0  0  0  0  0  0  0  0
    0.0000    0.0000    0.0000 C   0  0  0  0  0  0  0  0  0  0  0  0
    0.0000    0.0000    0.0000 C   0  0  0  0  0  0  0  0  0  0  0  0
    0.0000    0.0000    0.0000 C   0  0  0  0  0  0  0  0  0  0  0  0
  1  2  1  0
  2  3  1  0
  3  4  2  0
  3  5  1  0
  5  6  1  0
  6  7  1  0
  6  8  1  0
  8  9  1  0
  9 10  1  0
 10 11  1  0
 11 12  1  0
 12 13  1  0
 13 14  1  0
 14 15  1  0
 15 16  2  0
 16 17  1  0
 17 18  1  0
 18 19  2  0
 19 20  1  0
 20 21  2  0
 21 22  1  0
 22 23  2  0
 16 24  1  0
 24 25  1  0
 25 26  1  0
 26  5  1  0
 26 10  1  0
 24 12  1  0
 23 15  1  0
 23 18  1  0
M  END
>  <pIC50>  (185) 
8.145

>  <ChEMBL_ID>  (185) 
CHEMBL15245

>  <document_journal>  (185) 
None

>  <bao_endpoint>  (185) 
BAO_0000190

>  <potential_duplicate>  (185) 
False

>  <uo_units>  (185) 
UO_0000065

>  <canonical_smiles>  (185) 
COC(=O)[C@H]1[C@@H](O)CC[C@H]2CN3CCc4c([nH]c5ccccc45)[C@@H]3C[C@H]12

>  <parent_molecule_chembl_id>  (185) 
CHEMBL15245

>  <assay_type>  (185) 
B

>  <src_id>  (185) 
15

>  <ligand_efficiency>  (185) 
{u'le': u'0.43', u'bei': u'23.17', u'sei': u'12.52', u'lle': u'5.39'}

>  <standard_flag>  (185) 
True

>  <molecule_chembl_id>  (185) 
CHEMBL15245

>  <target_organism>  (185) 
Homo sapiens

>  <standard_units>  (185) 
nM

>  <record_id>  (185) 
1540278

>  <document_chembl_id>  (185) 
CHEMBL1909046

>  <bao_format>  (185) 
BAO_0000249

>  <data_validity_description>  (185) 
None

>  <activity_id>  (185) 
7792994

>  <standard_type>  (185) 
IC50

>  <target_chembl_id>  (185) 
CHEMBL1867

>  <data_validity_comment>  (185) 
None

>  <published_value>  (185) 
0.006151

>  <document_year>  (185) 
None

>  <target_pref_name>  (185) 
Alpha-2a adrenergic receptor

>  <assay_chembl_id>  (185) 
CHEMBL1909088

>  <standard_relation>  (185) 
=

>  <assay_description>  (185) 
DRUGMATRIX: Alpha-2A adrenergic receptor radioligand binding (ligand: MK-912)

>  <published_relation>  (185) 
=

>  <standard_value>  (185) 
6.151

>  <qudt_units>  (185) 
http://www.openphacts.org/units/Nanomolar

>  <target_tax_id>  (185) 
9606

>  <bao_label>  (185) 
cell membrane format

>  <published_units>  (185) 
uM

>  <pchembl_value>  (185) 
8.21

>  <published_type>  (185) 
IC50

>  <activity_comment>  (185) 
None

$$$$

     RDKit          

 28 31  0  0  0  0  0  0  0  0999 V2000
    0.0000    0.0000    0.0000 C   0  0  0  0  0  0  0  0  0  0  0  0
    0.0000    0.0000    0.0000 O   0  0  0  0  0  0  0  0  0  0  0  0
    0.0000    0.0000    0.0000 C   0  0  0  0  0  0  0  0  0  0  0  0
    0.0000    0.0000    0.0000 C   0  0  0  0  0  0  0  0  0  0  0  0
    0.0000    0.0000    0.0000 C   0  0  0  0  0  0  0  0  0  0  0  0
    0.0000    0.0000    0.0000 N   0  0  0  0  0  0  0  0  0  0  0  0
    0.0000    0.0000    0.0000 C   0  0  0  0  0  0  0  0  0  0  0  0
    0.0000    0.0000    0.0000 N   0  0  0  0  0  0  0  0  0  0  0  0
    0.0000    0.0000    0.0000 C   0  0  0  0  0  0  0  0  0  0  0  0
    0.0000    0.0000    0.0000 N   0  0  0  0  0  0  0  0  0  0  0  0
    0.0000    0.0000    0.0000 C   0  0  0  0  0  0  0  0  0  0  0  0
    0.0000    0.0000    0.0000 C   0  0  0  0  0  0  0  0  0  0  0  0
    0.0000    0.0000    0.0000 C   0  0  0  0  0  0  0  0  0  0  0  0
    0.0000    0.0000    0.0000 O   0  0  0  0  0  0  0  0  0  0  0  0
    0.0000    0.0000    0.0000 C   0  0  0  0  0  0  0  0  0  0  0  0
    0.0000    0.0000    0.0000 N   0  0  0  0  0  0  0  0  0  0  0  0
    0.0000    0.0000    0.0000 C   0  0  0  0  0  0  0  0  0  0  0  0
    0.0000    0.0000    0.0000 C   0  0  0  0  0  0  0  0  0  0  0  0
    0.0000    0.0000    0.0000 N   0  0  0  0  0  0  0  0  0  0  0  0
    0.0000    0.0000    0.0000 C   0  0  0  0  0  0  0  0  0  0  0  0
    0.0000    0.0000    0.0000 C   0  0  0  0  0  0  0  0  0  0  0  0
    0.0000    0.0000    0.0000 C   0  0  0  0  0  0  0  0  0  0  0  0
    0.0000    0.0000    0.0000 O   0  0  0  0  0  0  0  0  0  0  0  0
    0.0000    0.0000    0.0000 C   0  0  0  0  0  0  0  0  0  0  0  0
    0.0000    0.0000    0.0000 C   0  0  0  0  0  0  0  0  0  0  0  0
    0.0000    0.0000    0.0000 C   0  0  0  0  0  0  0  0  0  0  0  0
    0.0000    0.0000    0.0000 C   0  0  0  0  0  0  0  0  0  0  0  0
    0.0000    0.0000    0.0000 O   0  0  0  0  0  0  0  0  0  0  0  0
  1  2  1  0
  2  3  1  0
  3  4  2  0
  4  5  1  0
  5  6  2  0
  6  7  1  0
  7  8  2  0
  8  9  1  0
  9 10  1  0
  9 11  2  0
 11 12  1  0
 12 13  2  0
 13 14  1  0
 14 15  1  0
  7 16  1  0
 16 17  1  0
 17 18  1  0
 18 19  1  0
 19 20  1  0
 20 21  1  0
 19 22  1  0
 22 23  2  0
 22 24  1  0
 24 25  1  0
 25 26  1  0
 26 27  1  0
 27 28  1  0
 13  3  1  0
 11  5  1  0
 21 16  1  0
 28 24  1  0
M  END
>  <pIC50>  (186) 
4.86

>  <ChEMBL_ID>  (186) 
CHEMBL611

>  <document_journal>  (186) 
None

>  <bao_endpoint>  (186) 
BAO_0000190

>  <potential_duplicate>  (186) 
False

>  <uo_units>  (186) 
UO_0000065

>  <canonical_smiles>  (186) 
COc1cc2nc(nc(N)c2cc1OC)N3CCN(CC3)C(=O)C4CCCO4

>  <parent_molecule_chembl_id>  (186) 
CHEMBL611

>  <assay_type>  (186) 
B

>  <src_id>  (186) 
15

>  <ligand_efficiency>  (186) 
{u'le': u'0.24', u'bei': u'12.54', u'sei': u'4.72', u'lle': u'3.48'}

>  <standard_flag>  (186) 
True

>  <molecule_chembl_id>  (186) 
CHEMBL611

>  <target_organism>  (186) 
Homo sapiens

>  <standard_units>  (186) 
nM

>  <record_id>  (186) 
1540200

>  <document_chembl_id>  (186) 
CHEMBL1909046

>  <bao_format>  (186) 
BAO_0000249

>  <data_validity_description>  (186) 
None

>  <activity_id>  (186) 
7799710

>  <standard_type>  (186) 
IC50

>  <target_chembl_id>  (186) 
CHEMBL1867

>  <data_validity_comment>  (186) 
None

>  <published_value>  (186) 
13.832

>  <document_year>  (186) 
None

>  <target_pref_name>  (186) 
Alpha-2a adrenergic receptor

>  <assay_chembl_id>  (186) 
CHEMBL1909088

>  <standard_relation>  (186) 
=

>  <assay_description>  (186) 
DRUGMATRIX: Alpha-2A adrenergic receptor radioligand binding (ligand: MK-912)

>  <published_relation>  (186) 
=

>  <standard_value>  (186) 
13832

>  <qudt_units>  (186) 
http://www.openphacts.org/units/Nanomolar

>  <target_tax_id>  (186) 
9606

>  <bao_label>  (186) 
cell membrane format

>  <published_units>  (186) 
uM

>  <pchembl_value>  (186) 
4.86

>  <published_type>  (186) 
IC50

>  <activity_comment>  (186) 
None

$$$$

     RDKit          

 25 28  0  0  0  0  0  0  0  0999 V2000
    0.0000    0.0000    0.0000 C   0  0  0  0  0  0  0  0  0  0  0  0
    0.0000    0.0000    0.0000 S   0  0  0  0  0  0  0  0  0  0  0  0
    0.0000    0.0000    0.0000 C   0  0  0  0  0  0  0  0  0  0  0  0
    0.0000    0.0000    0.0000 C   0  0  0  0  0  0  0  0  0  0  0  0
    0.0000    0.0000    0.0000 C   0  0  0  0  0  0  0  0  0  0  0  0
    0.0000    0.0000    0.0000 C   0  0  0  0  0  0  0  0  0  0  0  0
    0.0000    0.0000    0.0000 S   0  0  0  0  0  0  0  0  0  0  0  0
    0.0000    0.0000    0.0000 C   0  0  0  0  0  0  0  0  0  0  0  0
    0.0000    0.0000    0.0000 C   0  0  0  0  0  0  0  0  0  0  0  0
    0.0000    0.0000    0.0000 C   0  0  0  0  0  0  0  0  0  0  0  0
    0.0000    0.0000    0.0000 C   0  0  0  0  0  0  0  0  0  0  0  0
    0.0000    0.0000    0.0000 C   0  0  0  0  0  0  0  0  0  0  0  0
    0.0000    0.0000    0.0000 C   0  0  0  0  0  0  0  0  0  0  0  0
    0.0000    0.0000    0.0000 N   0  0  0  0  0  0  0  0  0  0  0  0
    0.0000    0.0000    0.0000 C   0  0  0  0  0  0  0  0  0  0  0  0
    0.0000    0.0000    0.0000 C   0  0  0  0  0  0  0  0  0  0  0  0
    0.0000    0.0000    0.0000 C   0  0  0  0  0  0  0  0  0  0  0  0
    0.0000    0.0000    0.0000 C   0  0  0  0  0  0  0  0  0  0  0  0
    0.0000    0.0000    0.0000 C   0  0  0  0  0  0  0  0  0  0  0  0
    0.0000    0.0000    0.0000 C   0  0  0  0  0  0  0  0  0  0  0  0
    0.0000    0.0000    0.0000 C   0  0  0  0  0  0  0  0  0  0  0  0
    0.0000    0.0000    0.0000 N   0  0  0  0  0  0  0  0  0  0  0  0
    0.0000    0.0000    0.0000 C   0  0  0  0  0  0  0  0  0  0  0  0
    0.0000    0.0000    0.0000 C   0  0  0  0  0  0  0  0  0  0  0  0
    0.0000    0.0000    0.0000 C   0  0  0  0  0  0  0  0  0  0  0  0
  1  2  1  0
  2  3  1  0
  3  4  2  0
  4  5  1  0
  5  6  2  0
  6  7  1  0
  7  8  1  0
  8  9  2  0
  9 10  1  0
 10 11  2  0
 11 12  1  0
 12 13  2  0
 13 14  1  0
 14 15  1  0
 15 16  1  0
 16 17  1  0
 17 18  1  0
 18 19  1  0
 19 20  1  0
 20 21  1  0
 21 22  1  0
 22 23  1  0
 14 24  1  0
 24 25  2  0
 25  3  1  0
 24  6  1  0
 13  8  1  0
 22 17  1  0
M  END
>  <pIC50>  (187) 
6.88

>  <ChEMBL_ID>  (187) 
CHEMBL479

>  <document_journal>  (187) 
None

>  <bao_endpoint>  (187) 
BAO_0000190

>  <potential_duplicate>  (187) 
False

>  <uo_units>  (187) 
UO_0000065

>  <canonical_smiles>  (187) 
CSc1ccc2Sc3ccccc3N(CCC4CCCCN4C)c2c1

>  <parent_molecule_chembl_id>  (187) 
CHEMBL479

>  <assay_type>  (187) 
B

>  <src_id>  (187) 
15

>  <ligand_efficiency>  (187) 
{u'le': u'0.38', u'bei': u'18.56', u'sei': u'12.05', u'lle': u'1.32'}

>  <standard_flag>  (187) 
True

>  <molecule_chembl_id>  (187) 
CHEMBL479

>  <target_organism>  (187) 
Homo sapiens

>  <standard_units>  (187) 
nM

>  <record_id>  (187) 
1540216

>  <document_chembl_id>  (187) 
CHEMBL1909046

>  <bao_format>  (187) 
BAO_0000249

>  <data_validity_description>  (187) 
None

>  <activity_id>  (187) 
7799901

>  <standard_type>  (187) 
IC50

>  <target_chembl_id>  (187) 
CHEMBL1867

>  <data_validity_comment>  (187) 
None

>  <published_value>  (187) 
0.133

>  <document_year>  (187) 
None

>  <target_pref_name>  (187) 
Alpha-2a adrenergic receptor

>  <assay_chembl_id>  (187) 
CHEMBL1909088

>  <standard_relation>  (187) 
=

>  <assay_description>  (187) 
DRUGMATRIX: Alpha-2A adrenergic receptor radioligand binding (ligand: MK-912)

>  <published_relation>  (187) 
=

>  <standard_value>  (187) 
133

>  <qudt_units>  (187) 
http://www.openphacts.org/units/Nanomolar

>  <target_tax_id>  (187) 
9606

>  <bao_label>  (187) 
cell membrane format

>  <published_units>  (187) 
uM

>  <pchembl_value>  (187) 
6.88

>  <published_type>  (187) 
IC50

>  <activity_comment>  (187) 
None

$$$$

     RDKit          

 14 14  0  0  0  0  0  0  0  0999 V2000
    0.0000    0.0000    0.0000 C   0  0  0  0  0  0  0  0  0  0  0  0
    0.0000    0.0000    0.0000 C   0  0  0  0  0  0  0  0  0  0  0  0
    0.0000    0.0000    0.0000 C   0  0  0  0  0  0  0  0  0  0  0  0
    0.0000    0.0000    0.0000 C   0  0  0  0  0  0  0  0  0  0  0  0
    0.0000    0.0000    0.0000 C   0  0  0  0  0  0  0  0  0  0  0  0
    0.0000    0.0000    0.0000 C   0  0  0  0  0  0  0  0  0  0  0  0
    0.0000    0.0000    0.0000 C   0  0  0  0  0  0  0  0  0  0  0  0
    0.0000    0.0000    0.0000 C   0  0  0  0  0  0  0  0  0  0  0  0
    0.0000    0.0000    0.0000 C   0  0  0  0  0  0  0  0  0  0  0  0
    0.0000    0.0000    0.0000 N   0  0  0  0  0  0  0  0  0  0  0  0
    0.0000    0.0000    0.0000 C   0  0  0  0  0  0  0  0  0  0  0  0
    0.0000    0.0000    0.0000 C   0  0  0  0  0  0  0  0  0  0  0  0
    0.0000    0.0000    0.0000 C   0  0  0  0  0  0  0  0  0  0  0  0
    0.0000    0.0000    0.0000 C   0  0  0  0  0  0  0  0  0  0  0  0
  1  2  1  0
  2  3  1  0
  3  4  1  0
  4  5  2  0
  5  6  1  0
  6  7  2  0
  7  8  1  0
  8  9  2  0
  2 10  1  0
 10 11  1  0
 10 12  1  0
 12 13  1  0
 13 14  3  0
  9  4  1  0
M  END
>  <pIC50>  (188) 
5.75

>  <ChEMBL_ID>  (188) 
CHEMBL972

>  <document_journal>  (188) 
None

>  <bao_endpoint>  (188) 
BAO_0000190

>  <potential_duplicate>  (188) 
False

>  <uo_units>  (188) 
UO_0000065

>  <canonical_smiles>  (188) 
C[C@H](Cc1ccccc1)N(C)CC#C

>  <parent_molecule_chembl_id>  (188) 
CHEMBL972

>  <assay_type>  (188) 
B

>  <src_id>  (188) 
15

>  <ligand_efficiency>  (188) 
{u'le': u'0.56', u'bei': u'30.68', u'sei': u'177.32', u'lle': u'1.96'}

>  <standard_flag>  (188) 
True

>  <molecule_chembl_id>  (188) 
CHEMBL972

>  <target_organism>  (188) 
Homo sapiens

>  <standard_units>  (188) 
nM

>  <record_id>  (188) 
1540143

>  <document_chembl_id>  (188) 
CHEMBL1909046

>  <bao_format>  (188) 
BAO_0000249

>  <data_validity_description>  (188) 
None

>  <activity_id>  (188) 
7800811

>  <standard_type>  (188) 
IC50

>  <target_chembl_id>  (188) 
CHEMBL1867

>  <data_validity_comment>  (188) 
None

>  <published_value>  (188) 
1.798

>  <document_year>  (188) 
None

>  <target_pref_name>  (188) 
Alpha-2a adrenergic receptor

>  <assay_chembl_id>  (188) 
CHEMBL1909088

>  <standard_relation>  (188) 
=

>  <assay_description>  (188) 
DRUGMATRIX: Alpha-2A adrenergic receptor radioligand binding (ligand: MK-912)

>  <published_relation>  (188) 
=

>  <standard_value>  (188) 
1798

>  <qudt_units>  (188) 
http://www.openphacts.org/units/Nanomolar

>  <target_tax_id>  (188) 
9606

>  <bao_label>  (188) 
cell membrane format

>  <published_units>  (188) 
uM

>  <pchembl_value>  (188) 
5.75

>  <published_type>  (188) 
IC50

>  <activity_comment>  (188) 
None

$$$$

     RDKit          

 24 26  0  0  0  0  0  0  0  0999 V2000
    0.0000    0.0000    0.0000 Cl  0  0  0  0  0  0  0  0  0  0  0  0
    0.0000    0.0000    0.0000 C   0  0  0  0  0  0  0  0  0  0  0  0
    0.0000    0.0000    0.0000 C   0  0  0  0  0  0  0  0  0  0  0  0
    0.0000    0.0000    0.0000 C   0  0  0  0  0  0  0  0  0  0  0  0
    0.0000    0.0000    0.0000 C   0  0  0  0  0  0  0  0  0  0  0  0
    0.0000    0.0000    0.0000 C   0  0  0  0  0  0  0  0  0  0  0  0
    0.0000    0.0000    0.0000 S   0  0  0  0  0  0  0  0  0  0  0  0
    0.0000    0.0000    0.0000 C   0  0  0  0  0  0  0  0  0  0  0  0
    0.0000    0.0000    0.0000 C   0  0  0  0  0  0  0  0  0  0  0  0
    0.0000    0.0000    0.0000 N   0  0  0  0  0  0  0  0  0  0  0  0
    0.0000    0.0000    0.0000 C   0  0  0  0  0  0  0  0  0  0  0  0
    0.0000    0.0000    0.0000 C   0  0  0  0  0  0  0  0  0  0  0  0
    0.0000    0.0000    0.0000 N   0  0  0  0  0  0  0  0  0  0  0  0
    0.0000    0.0000    0.0000 C   0  0  0  0  0  0  0  0  0  0  0  0
    0.0000    0.0000    0.0000 C   0  0  0  0  0  0  0  0  0  0  0  0
    0.0000    0.0000    0.0000 C   0  0  0  0  0  0  0  0  0  0  0  0
    0.0000    0.0000    0.0000 C   0  0  0  0  0  0  0  0  0  0  0  0
    0.0000    0.0000    0.0000 C   0  0  0  0  0  0  0  0  0  0  0  0
    0.0000    0.0000    0.0000 Cl  0  0  0  0  0  0  0  0  0  0  0  0
    0.0000    0.0000    0.0000 C   0  0  0  0  0  0  0  0  0  0  0  0
    0.0000    0.0000    0.0000 C   0  0  0  0  0  0  0  0  0  0  0  0
    0.0000    0.0000    0.0000 Cl  0  0  0  0  0  0  0  0  0  0  0  0
    0.0000    0.0000    0.0000 C   0  0  0  0  0  0  0  0  0  0  0  0
    0.0000    0.0000    0.0000 C   0  0  0  0  0  0  0  0  0  0  0  0
  1  2  1  0
  2  3  2  0
  3  4  1  0
  4  5  2  0
  5  6  1  0
  6  7  1  0
  7  8  1  0
  8  9  1  0
  9 10  1  0
 10 11  1  0
 11 12  2  0
 12 13  1  0
 13 14  2  0
  8 15  1  0
 15 16  2  0
 16 17  1  0
 17 18  2  0
 18 19  1  0
 18 20  1  0
 20 21  2  0
 21 22  1  0
  5 23  1  0
 23 24  2  0
 24  2  1  0
 14 10  1  0
 21 15  1  0
M  END
>  <pIC50>  (189) 
5.39

>  <ChEMBL_ID>  (189) 
CHEMBL1221

>  <document_journal>  (189) 
None

>  <bao_endpoint>  (189) 
BAO_0000190

>  <potential_duplicate>  (189) 
False

>  <uo_units>  (189) 
UO_0000065

>  <canonical_smiles>  (189) 
Clc1ccc(CSC(Cn2ccnc2)c3ccc(Cl)cc3Cl)cc1

>  <parent_molecule_chembl_id>  (189) 
CHEMBL1221

>  <assay_type>  (189) 
B

>  <src_id>  (189) 
15

>  <ligand_efficiency>  (189) 
{u'le': u'0.31', u'bei': u'13.56', u'sei': u'12.51', u'lle': u'-0.34'}

>  <standard_flag>  (189) 
True

>  <molecule_chembl_id>  (189) 
CHEMBL1221

>  <target_organism>  (189) 
Homo sapiens

>  <standard_units>  (189) 
nM

>  <record_id>  (189) 
1540168

>  <document_chembl_id>  (189) 
CHEMBL1909046

>  <bao_format>  (189) 
BAO_0000249

>  <data_validity_description>  (189) 
None

>  <activity_id>  (189) 
7801314

>  <standard_type>  (189) 
IC50

>  <target_chembl_id>  (189) 
CHEMBL1867

>  <data_validity_comment>  (189) 
None

>  <published_value>  (189) 
4.043

>  <document_year>  (189) 
None

>  <target_pref_name>  (189) 
Alpha-2a adrenergic receptor

>  <assay_chembl_id>  (189) 
CHEMBL1909088

>  <standard_relation>  (189) 
=

>  <assay_description>  (189) 
DRUGMATRIX: Alpha-2A adrenergic receptor radioligand binding (ligand: MK-912)

>  <published_relation>  (189) 
=

>  <standard_value>  (189) 
4043

>  <qudt_units>  (189) 
http://www.openphacts.org/units/Nanomolar

>  <target_tax_id>  (189) 
9606

>  <bao_label>  (189) 
cell membrane format

>  <published_units>  (189) 
uM

>  <pchembl_value>  (189) 
5.39

>  <published_type>  (189) 
IC50

>  <activity_comment>  (189) 
None

$$$$

     RDKit          

 28 30  0  0  0  0  0  0  0  0999 V2000
    0.0000    0.0000    0.0000 C   0  0  0  0  0  0  0  0  0  0  0  0
    0.0000    0.0000    0.0000 C   0  0  0  0  0  0  0  0  0  0  0  0
    0.0000    0.0000    0.0000 C   0  0  0  0  0  0  0  0  0  0  0  0
    0.0000    0.0000    0.0000 C   0  0  0  0  0  0  0  0  0  0  0  0
    0.0000    0.0000    0.0000 C   0  0  0  0  0  0  0  0  0  0  0  0
    0.0000    0.0000    0.0000 C   0  0  0  0  0  0  0  0  0  0  0  0
    0.0000    0.0000    0.0000 C   0  0  0  0  0  0  0  0  0  0  0  0
    0.0000    0.0000    0.0000 C   0  0  0  0  0  0  0  0  0  0  0  0
    0.0000    0.0000    0.0000 C   0  0  0  0  0  0  0  0  0  0  0  0
    0.0000    0.0000    0.0000 C   0  0  0  0  0  0  0  0  0  0  0  0
    0.0000    0.0000    0.0000 C   0  0  0  0  0  0  0  0  0  0  0  0
    0.0000    0.0000    0.0000 C   0  0  0  0  0  0  0  0  0  0  0  0
    0.0000    0.0000    0.0000 C   0  0  0  0  0  0  0  0  0  0  0  0
    0.0000    0.0000    0.0000 C   0  0  0  0  0  0  0  0  0  0  0  0
    0.0000    0.0000    0.0000 O   0  0  0  0  0  0  0  0  0  0  0  0
    0.0000    0.0000    0.0000 C   0  0  0  0  0  0  0  0  0  0  0  0
    0.0000    0.0000    0.0000 C   0  0  0  0  0  0  0  0  0  0  0  0
    0.0000    0.0000    0.0000 N   0  0  0  0  0  0  0  0  0  0  0  0
    0.0000    0.0000    0.0000 C   0  0  0  0  0  0  0  0  0  0  0  0
    0.0000    0.0000    0.0000 C   0  0  0  0  0  0  0  0  0  0  0  0
    0.0000    0.0000    0.0000 C   0  0  0  0  0  0  0  0  0  0  0  0
    0.0000    0.0000    0.0000 C   0  0  0  0  0  0  0  0  0  0  0  0
    0.0000    0.0000    0.0000 C   0  0  0  0  0  0  0  0  0  0  0  0
    0.0000    0.0000    0.0000 C   0  0  0  0  0  0  0  0  0  0  0  0
    0.0000    0.0000    0.0000 C   0  0  0  0  0  0  0  0  0  0  0  0
    0.0000    0.0000    0.0000 C   0  0  0  0  0  0  0  0  0  0  0  0
    0.0000    0.0000    0.0000 C   0  0  0  0  0  0  0  0  0  0  0  0
    0.0000    0.0000    0.0000 C   0  0  0  0  0  0  0  0  0  0  0  0
  1  2  1  0
  2  3  1  0
  3  4  2  0
  4  5  1  0
  5  6  2  0
  6  7  1  0
  7  8  2  0
  8  9  1  0
  9 10  2  0
  4 11  1  0
 11 12  2  0
 12 13  1  0
 13 14  2  0
 14 15  1  0
 15 16  1  0
 16 17  1  0
 17 18  1  0
 18 19  1  0
 18 20  1  0
 14 21  1  0
 21 22  2  0
  3 23  1  0
 23 24  2  0
 24 25  1  0
 25 26  2  0
 26 27  1  0
 27 28  2  0
 10  5  1  0
 22 11  1  0
 28 23  1  0
M  END
>  <pIC50>  (190) 
5.71

>  <ChEMBL_ID>  (190) 
CHEMBL83

>  <document_journal>  (190) 
None

>  <bao_endpoint>  (190) 
BAO_0000190

>  <potential_duplicate>  (190) 
False

>  <uo_units>  (190) 
UO_0000065

>  <canonical_smiles>  (190) 
CC\C(=C(/c1ccccc1)\c2ccc(OCCN(C)C)cc2)\c3ccccc3

>  <parent_molecule_chembl_id>  (190) 
CHEMBL83

>  <assay_type>  (190) 
B

>  <src_id>  (190) 
15

>  <ligand_efficiency>  (190) 
{u'le': u'0.28', u'bei': u'15.38', u'sei': u'45.82', u'lle': u'-0.61'}

>  <standard_flag>  (190) 
True

>  <molecule_chembl_id>  (190) 
CHEMBL83

>  <target_organism>  (190) 
Homo sapiens

>  <standard_units>  (190) 
nM

>  <record_id>  (190) 
1540192

>  <document_chembl_id>  (190) 
CHEMBL1909046

>  <bao_format>  (190) 
BAO_0000249

>  <data_validity_description>  (190) 
None

>  <activity_id>  (190) 
7801663

>  <standard_type>  (190) 
IC50

>  <target_chembl_id>  (190) 
CHEMBL1867

>  <data_validity_comment>  (190) 
None

>  <published_value>  (190) 
1.935

>  <document_year>  (190) 
None

>  <target_pref_name>  (190) 
Alpha-2a adrenergic receptor

>  <assay_chembl_id>  (190) 
CHEMBL1909088

>  <standard_relation>  (190) 
=

>  <assay_description>  (190) 
DRUGMATRIX: Alpha-2A adrenergic receptor radioligand binding (ligand: MK-912)

>  <published_relation>  (190) 
=

>  <standard_value>  (190) 
1935

>  <qudt_units>  (190) 
http://www.openphacts.org/units/Nanomolar

>  <target_tax_id>  (190) 
9606

>  <bao_label>  (190) 
cell membrane format

>  <published_units>  (190) 
uM

>  <pchembl_value>  (190) 
5.71

>  <published_type>  (190) 
IC50

>  <activity_comment>  (190) 
None

$$$$

     RDKit          

 22 22  0  0  0  0  0  0  0  0999 V2000
    0.0000    0.0000    0.0000 C   0  0  0  0  0  0  0  0  0  0  0  0
    0.0000    0.0000    0.0000 C   0  0  0  0  0  0  0  0  0  0  0  0
    0.0000    0.0000    0.0000 N   0  0  0  0  0  0  0  0  0  0  0  0
    0.0000    0.0000    0.0000 C   0  0  0  0  0  0  0  0  0  0  0  0
    0.0000    0.0000    0.0000 C   0  0  0  0  0  0  0  0  0  0  0  0
    0.0000    0.0000    0.0000 C   0  0  0  0  0  0  0  0  0  0  0  0
    0.0000    0.0000    0.0000 C   0  0  0  0  0  0  0  0  0  0  0  0
    0.0000    0.0000    0.0000 N   0  0  0  0  0  0  0  0  0  0  0  0
    0.0000    0.0000    0.0000 C   0  0  0  0  0  0  0  0  0  0  0  0
    0.0000    0.0000    0.0000 O   0  0  0  0  0  0  0  0  0  0  0  0
    0.0000    0.0000    0.0000 C   0  0  0  0  0  0  0  0  0  0  0  0
    0.0000    0.0000    0.0000 C   0  0  0  0  0  0  0  0  0  0  0  0
    0.0000    0.0000    0.0000 C   0  0  0  0  0  0  0  0  0  0  0  0
    0.0000    0.0000    0.0000 C   0  0  0  0  0  0  0  0  0  0  0  0
    0.0000    0.0000    0.0000 C   0  0  0  0  0  0  0  0  0  0  0  0
    0.0000    0.0000    0.0000 C   0  0  0  0  0  0  0  0  0  0  0  0
    0.0000    0.0000    0.0000 O   0  0  0  0  0  0  0  0  0  0  0  0
    0.0000    0.0000    0.0000 C   0  0  0  0  0  0  0  0  0  0  0  0
    0.0000    0.0000    0.0000 S   0  0  0  0  0  0  0  0  0  0  0  0
    0.0000    0.0000    0.0000 O   0  0  0  0  0  0  0  0  0  0  0  0
    0.0000    0.0000    0.0000 O   0  0  0  0  0  0  0  0  0  0  0  0
    0.0000    0.0000    0.0000 C   0  0  0  0  0  0  0  0  0  0  0  0
  1  2  1  0
  2  3  1  0
  3  4  1  0
  4  5  1  0
  3  6  1  0
  6  7  1  0
  7  8  1  0
  8  9  1  0
  9 10  2  0
  9 11  1  0
 11 12  2  0
 12 13  1  0
 13 14  2  0
 14 15  1  0
 15 16  2  0
 16 17  1  0
 17 18  1  0
 13 19  1  0
 19 20  2  0
 19 21  2  0
 19 22  1  0
 16 11  1  0
M  END
>  <pIC50>  (191) 
5.68

>  <ChEMBL_ID>  (191) 
CHEMBL84158

>  <document_journal>  (191) 
None

>  <bao_endpoint>  (191) 
BAO_0000190

>  <potential_duplicate>  (191) 
False

>  <uo_units>  (191) 
UO_0000065

>  <canonical_smiles>  (191) 
CCN(CC)CCNC(=O)c1cc(ccc1OC)S(=O)(=O)C

>  <parent_molecule_chembl_id>  (191) 
CHEMBL84158

>  <assay_type>  (191) 
B

>  <src_id>  (191) 
15

>  <ligand_efficiency>  (191) 
{u'le': u'0.35', u'bei': u'17.3', u'sei': u'6.76', u'lle': u'4.3'}

>  <standard_flag>  (191) 
True

>  <molecule_chembl_id>  (191) 
CHEMBL84158

>  <target_organism>  (191) 
Homo sapiens

>  <standard_units>  (191) 
nM

>  <record_id>  (191) 
1540217

>  <document_chembl_id>  (191) 
CHEMBL1909046

>  <bao_format>  (191) 
BAO_0000249

>  <data_validity_description>  (191) 
None

>  <activity_id>  (191) 
7802177

>  <standard_type>  (191) 
IC50

>  <target_chembl_id>  (191) 
CHEMBL1867

>  <data_validity_comment>  (191) 
None

>  <published_value>  (191) 
2.078

>  <document_year>  (191) 
None

>  <target_pref_name>  (191) 
Alpha-2a adrenergic receptor

>  <assay_chembl_id>  (191) 
CHEMBL1909088

>  <standard_relation>  (191) 
=

>  <assay_description>  (191) 
DRUGMATRIX: Alpha-2A adrenergic receptor radioligand binding (ligand: MK-912)

>  <published_relation>  (191) 
=

>  <standard_value>  (191) 
2078

>  <qudt_units>  (191) 
http://www.openphacts.org/units/Nanomolar

>  <target_tax_id>  (191) 
9606

>  <bao_label>  (191) 
cell membrane format

>  <published_units>  (191) 
uM

>  <pchembl_value>  (191) 
5.68

>  <published_type>  (191) 
IC50

>  <activity_comment>  (191) 
None

$$$$

     RDKit          

 22 23  0  0  0  0  0  0  0  0999 V2000
    0.0000    0.0000    0.0000 C   0  0  0  0  0  0  0  0  0  0  0  0
    0.0000    0.0000    0.0000 N   0  0  0  0  0  0  0  0  0  0  0  0
    0.0000    0.0000    0.0000 C   0  0  0  0  0  0  0  0  0  0  0  0
    0.0000    0.0000    0.0000 C   0  0  0  0  0  0  0  0  0  0  0  0
    0.0000    0.0000    0.0000 C   0  0  0  0  0  0  0  0  0  0  0  0
    0.0000    0.0000    0.0000 C   0  0  0  0  0  0  0  0  0  0  0  0
    0.0000    0.0000    0.0000 C   0  0  0  0  0  0  0  0  0  0  0  0
    0.0000    0.0000    0.0000 C   0  0  0  0  0  0  0  0  0  0  0  0
    0.0000    0.0000    0.0000 C   0  0  0  0  0  0  0  0  0  0  0  0
    0.0000    0.0000    0.0000 C   0  0  0  0  0  0  0  0  0  0  0  0
    0.0000    0.0000    0.0000 C   0  0  0  0  0  0  0  0  0  0  0  0
    0.0000    0.0000    0.0000 C   0  0  0  0  0  0  0  0  0  0  0  0
    0.0000    0.0000    0.0000 C   0  0  0  0  0  0  0  0  0  0  0  0
    0.0000    0.0000    0.0000 C   0  0  0  0  0  0  0  0  0  0  0  0
    0.0000    0.0000    0.0000 C   0  0  0  0  0  0  0  0  0  0  0  0
    0.0000    0.0000    0.0000 C   0  0  0  0  0  0  0  0  0  0  0  0
    0.0000    0.0000    0.0000 C   0  0  0  0  0  0  0  0  0  0  0  0
    0.0000    0.0000    0.0000 C   0  0  0  0  0  0  0  0  0  0  0  0
    0.0000    0.0000    0.0000 C   0  0  0  0  0  0  0  0  0  0  0  0
    0.0000    0.0000    0.0000 C   0  0  0  0  0  0  0  0  0  0  0  0
    0.0000    0.0000    0.0000 C   0  0  0  0  0  0  0  0  0  0  0  0
    0.0000    0.0000    0.0000 C   0  0  0  0  0  0  0  0  0  0  0  0
  1  2  1  0
  2  3  1  0
  3  4  1  0
  4  5  2  0
  5  6  1  0
  6  7  3  0
  7  8  1  0
  8  9  1  0
  8 10  1  0
  8 11  1  0
  2 12  1  0
 12 13  1  0
 13 14  2  0
 14 15  1  0
 15 16  2  0
 16 17  1  0
 17 18  2  0
 18 19  1  0
 19 20  2  0
 20 21  1  0
 21 22  2  0
 22 13  1  0
 22 17  1  0
M  END
>  <pIC50>  (192) 
5.24

>  <ChEMBL_ID>  (192) 
CHEMBL822

>  <document_journal>  (192) 
None

>  <bao_endpoint>  (192) 
BAO_0000190

>  <potential_duplicate>  (192) 
False

>  <uo_units>  (192) 
UO_0000065

>  <canonical_smiles>  (192) 
CN(C\C=C\C#CC(C)(C)C)Cc1cccc2ccccc12

>  <parent_molecule_chembl_id>  (192) 
CHEMBL822

>  <assay_type>  (192) 
B

>  <src_id>  (192) 
15

>  <ligand_efficiency>  (192) 
{u'le': u'0.33', u'bei': u'17.99', u'sei': u'161.85', u'lle': u'-0.1'}

>  <standard_flag>  (192) 
True

>  <molecule_chembl_id>  (192) 
CHEMBL822

>  <target_organism>  (192) 
Homo sapiens

>  <standard_units>  (192) 
nM

>  <record_id>  (192) 
1540201

>  <document_chembl_id>  (192) 
CHEMBL1909046

>  <bao_format>  (192) 
BAO_0000249

>  <data_validity_description>  (192) 
None

>  <activity_id>  (192) 
7804057

>  <standard_type>  (192) 
IC50

>  <target_chembl_id>  (192) 
CHEMBL1867

>  <data_validity_comment>  (192) 
None

>  <published_value>  (192) 
5.7029

>  <document_year>  (192) 
None

>  <target_pref_name>  (192) 
Alpha-2a adrenergic receptor

>  <assay_chembl_id>  (192) 
CHEMBL1909088

>  <standard_relation>  (192) 
=

>  <assay_description>  (192) 
DRUGMATRIX: Alpha-2A adrenergic receptor radioligand binding (ligand: MK-912)

>  <published_relation>  (192) 
=

>  <standard_value>  (192) 
5702.9

>  <qudt_units>  (192) 
http://www.openphacts.org/units/Nanomolar

>  <target_tax_id>  (192) 
9606

>  <bao_label>  (192) 
cell membrane format

>  <published_units>  (192) 
uM

>  <pchembl_value>  (192) 
5.24

>  <published_type>  (192) 
IC50

>  <activity_comment>  (192) 
None

$$$$

     RDKit          

 30 34  0  0  0  0  0  0  0  0999 V2000
    0.0000    0.0000    0.0000 C   0  0  0  0  0  0  0  0  0  0  0  0
    0.0000    0.0000    0.0000 C   0  0  0  0  0  0  0  0  0  0  0  0
    0.0000    0.0000    0.0000 C   0  0  0  0  0  0  0  0  0  0  0  0
    0.0000    0.0000    0.0000 C   0  0  0  0  0  0  0  0  0  0  0  0
    0.0000    0.0000    0.0000 C   0  0  0  0  0  0  0  0  0  0  0  0
    0.0000    0.0000    0.0000 N   0  0  0  0  0  0  0  0  0  0  0  0
    0.0000    0.0000    0.0000 C   0  0  0  0  0  0  0  0  0  0  0  0
    0.0000    0.0000    0.0000 C   0  0  0  0  0  0  0  0  0  0  0  0
    0.0000    0.0000    0.0000 C   0  0  0  0  0  0  0  0  0  0  0  0
    0.0000    0.0000    0.0000 C   0  0  0  0  0  0  0  0  0  0  0  0
    0.0000    0.0000    0.0000 C   0  0  0  0  0  0  0  0  0  0  0  0
    0.0000    0.0000    0.0000 C   0  0  0  0  0  0  0  0  0  0  0  0
    0.0000    0.0000    0.0000 N   0  0  0  0  0  0  0  0  0  0  0  0
    0.0000    0.0000    0.0000 O   0  0  0  0  0  0  0  0  0  0  0  0
    0.0000    0.0000    0.0000 C   0  0  0  0  0  0  0  0  0  0  0  0
    0.0000    0.0000    0.0000 C   0  0  0  0  0  0  0  0  0  0  0  0
    0.0000    0.0000    0.0000 C   0  0  0  0  0  0  0  0  0  0  0  0
    0.0000    0.0000    0.0000 F   0  0  0  0  0  0  0  0  0  0  0  0
    0.0000    0.0000    0.0000 C   0  0  0  0  0  0  0  0  0  0  0  0
    0.0000    0.0000    0.0000 C   0  0  0  0  0  0  0  0  0  0  0  0
    0.0000    0.0000    0.0000 C   0  0  0  0  0  0  0  0  0  0  0  0
    0.0000    0.0000    0.0000 C   0  0  0  0  0  0  0  0  0  0  0  0
    0.0000    0.0000    0.0000 O   0  0  0  0  0  0  0  0  0  0  0  0
    0.0000    0.0000    0.0000 N   0  0  0  0  0  0  0  0  0  0  0  0
    0.0000    0.0000    0.0000 C   0  0  0  0  0  0  0  0  0  0  0  0
    0.0000    0.0000    0.0000 C   0  0  0  0  0  0  0  0  0  0  0  0
    0.0000    0.0000    0.0000 C   0  0  0  0  0  0  0  0  0  0  0  0
    0.0000    0.0000    0.0000 C   0  0  0  0  0  0  0  0  0  0  0  0
    0.0000    0.0000    0.0000 C   0  0  0  0  0  0  0  0  0  0  0  0
    0.0000    0.0000    0.0000 N   0  0  0  0  0  0  0  0  0  0  0  0
  1  2  1  0
  2  3  2  0
  3  4  1  0
  4  5  1  0
  5  6  1  0
  6  7  1  0
  7  8  1  0
  8  9  1  0
  9 10  1  0
 10 11  1  0
  9 12  1  0
 12 13  2  0
 13 14  1  0
 14 15  1  0
 15 16  2  0
 16 17  1  0
 17 18  1  0
 17 19  2  0
 19 20  1  0
 20 21  2  0
  3 22  1  0
 22 23  2  0
 22 24  1  0
 24 25  1  0
 25 26  1  0
 26 27  1  0
 27 28  1  0
 28 29  1  0
 29 30  2  0
 30  2  1  0
 11  6  1  0
 21 12  1  0
 21 15  1  0
 29 24  1  0
M  END
>  <pIC50>  (193) 
8.01

>  <ChEMBL_ID>  (193) 
CHEMBL85

>  <document_journal>  (193) 
None

>  <bao_endpoint>  (193) 
BAO_0000190

>  <potential_duplicate>  (193) 
False

>  <uo_units>  (193) 
UO_0000065

>  <canonical_smiles>  (193) 
CC1=C(CCN2CCC(CC2)c3noc4cc(F)ccc34)C(=O)N5CCCCC5=N1

>  <parent_molecule_chembl_id>  (193) 
CHEMBL85

>  <assay_type>  (193) 
B

>  <src_id>  (193) 
15

>  <ligand_efficiency>  (193) 
{u'le': u'0.36', u'bei': u'19.52', u'sei': u'12.94', u'lle': u'4.69'}

>  <standard_flag>  (193) 
True

>  <molecule_chembl_id>  (193) 
CHEMBL85

>  <target_organism>  (193) 
Homo sapiens

>  <standard_units>  (193) 
nM

>  <record_id>  (193) 
1540120

>  <document_chembl_id>  (193) 
CHEMBL1909046

>  <bao_format>  (193) 
BAO_0000249

>  <data_validity_description>  (193) 
None

>  <activity_id>  (193) 
7804809

>  <standard_type>  (193) 
IC50

>  <target_chembl_id>  (193) 
CHEMBL1867

>  <data_validity_comment>  (193) 
None

>  <published_value>  (193) 
0.009674

>  <document_year>  (193) 
None

>  <target_pref_name>  (193) 
Alpha-2a adrenergic receptor

>  <assay_chembl_id>  (193) 
CHEMBL1909088

>  <standard_relation>  (193) 
=

>  <assay_description>  (193) 
DRUGMATRIX: Alpha-2A adrenergic receptor radioligand binding (ligand: MK-912)

>  <published_relation>  (193) 
=

>  <standard_value>  (193) 
9.674

>  <qudt_units>  (193) 
http://www.openphacts.org/units/Nanomolar

>  <target_tax_id>  (193) 
9606

>  <bao_label>  (193) 
cell membrane format

>  <published_units>  (193) 
uM

>  <pchembl_value>  (193) 
8.01

>  <published_type>  (193) 
IC50

>  <activity_comment>  (193) 
None

$$$$

     RDKit          

 16 16  0  0  0  0  0  0  0  0999 V2000
    0.0000    0.0000    0.0000 C   0  0  0  0  0  0  0  0  0  0  0  0
    0.0000    0.0000    0.0000 C   0  0  0  0  0  0  0  0  0  0  0  0
    0.0000    0.0000    0.0000 C   0  0  0  0  0  0  0  0  0  0  0  0
    0.0000    0.0000    0.0000 C   0  0  0  0  0  0  0  0  0  0  0  0
    0.0000    0.0000    0.0000 C   0  0  0  0  0  0  0  0  0  0  0  0
    0.0000    0.0000    0.0000 C   0  0  0  0  0  0  0  0  0  0  0  0
    0.0000    0.0000    0.0000 C   0  0  0  0  0  0  0  0  0  0  0  0
    0.0000    0.0000    0.0000 N   0  0  0  0  0  0  0  0  0  0  0  0
    0.0000    0.0000    0.0000 C   0  0  0  0  0  0  0  0  0  0  0  0
    0.0000    0.0000    0.0000 O   0  0  0  0  0  0  0  0  0  0  0  0
    0.0000    0.0000    0.0000 N   0  0  0  0  0  0  0  0  0  0  0  0
    0.0000    0.0000    0.0000 C   0  0  0  0  0  0  0  0  0  0  0  0
    0.0000    0.0000    0.0000 C   0  0  0  0  0  0  0  0  0  0  0  0
    0.0000    0.0000    0.0000 Cl  0  0  0  0  0  0  0  0  0  0  0  0
    0.0000    0.0000    0.0000 N   0  0  0  0  0  0  0  0  0  0  0  0
    0.0000    0.0000    0.0000 O   0  0  0  0  0  0  0  0  0  0  0  0
  1  2  1  0
  2  3  1  0
  3  4  1  0
  4  5  1  0
  5  6  1  0
  6  7  1  0
  5  8  1  0
  8  9  1  0
  9 10  2  0
  9 11  1  0
 11 12  1  0
 12 13  1  0
 13 14  1  0
 11 15  1  0
 15 16  2  0
  7  2  1  0
M  END
>  <pIC50>  (194) 
5.32

>  <ChEMBL_ID>  (194) 
CHEMBL12948

>  <document_journal>  (194) 
None

>  <bao_endpoint>  (194) 
BAO_0000190

>  <potential_duplicate>  (194) 
False

>  <uo_units>  (194) 
UO_0000065

>  <canonical_smiles>  (194) 
CC1CCC(CC1)NC(=O)N(CCCl)N=O

>  <parent_molecule_chembl_id>  (194) 
CHEMBL12948

>  <assay_type>  (194) 
B

>  <src_id>  (194) 
15

>  <ligand_efficiency>  (194) 
{u'le': u'0.45', u'bei': u'21.47', u'sei': u'8.61', u'lle': u'2.67'}

>  <standard_flag>  (194) 
True

>  <molecule_chembl_id>  (194) 
CHEMBL12948

>  <target_organism>  (194) 
Homo sapiens

>  <standard_units>  (194) 
nM

>  <record_id>  (194) 
1540144

>  <document_chembl_id>  (194) 
CHEMBL1909046

>  <bao_format>  (194) 
BAO_0000249

>  <data_validity_description>  (194) 
None

>  <activity_id>  (194) 
7805160

>  <standard_type>  (194) 
IC50

>  <target_chembl_id>  (194) 
CHEMBL1867

>  <data_validity_comment>  (194) 
None

>  <published_value>  (194) 
4.809

>  <document_year>  (194) 
None

>  <target_pref_name>  (194) 
Alpha-2a adrenergic receptor

>  <assay_chembl_id>  (194) 
CHEMBL1909088

>  <standard_relation>  (194) 
=

>  <assay_description>  (194) 
DRUGMATRIX: Alpha-2A adrenergic receptor radioligand binding (ligand: MK-912)

>  <published_relation>  (194) 
=

>  <standard_value>  (194) 
4809

>  <qudt_units>  (194) 
http://www.openphacts.org/units/Nanomolar

>  <target_tax_id>  (194) 
9606

>  <bao_label>  (194) 
cell membrane format

>  <published_units>  (194) 
uM

>  <pchembl_value>  (194) 
5.32

>  <published_type>  (194) 
IC50

>  <activity_comment>  (194) 
None

$$$$

     RDKit          

 20 22  0  0  0  0  0  0  0  0999 V2000
    0.0000    0.0000    0.0000 C   0  0  0  0  0  0  0  0  0  0  0  0
    0.0000    0.0000    0.0000 N   0  0  0  0  0  0  0  0  0  0  0  0
    0.0000    0.0000    0.0000 C   0  0  0  0  0  0  0  0  0  0  0  0
    0.0000    0.0000    0.0000 C   0  0  0  0  0  0  0  0  0  0  0  0
    0.0000    0.0000    0.0000 C   0  0  0  0  0  0  0  0  0  0  0  0
    0.0000    0.0000    0.0000 C   0  0  0  0  0  0  0  0  0  0  0  0
    0.0000    0.0000    0.0000 C   0  0  0  0  0  0  0  0  0  0  0  0
    0.0000    0.0000    0.0000 C   0  0  0  0  0  0  0  0  0  0  0  0
    0.0000    0.0000    0.0000 C   0  0  0  0  0  0  0  0  0  0  0  0
    0.0000    0.0000    0.0000 C   0  0  0  0  0  0  0  0  0  0  0  0
    0.0000    0.0000    0.0000 Cl  0  0  0  0  0  0  0  0  0  0  0  0
    0.0000    0.0000    0.0000 C   0  0  0  0  0  0  0  0  0  0  0  0
    0.0000    0.0000    0.0000 Cl  0  0  0  0  0  0  0  0  0  0  0  0
    0.0000    0.0000    0.0000 C   0  0  0  0  0  0  0  0  0  0  0  0
    0.0000    0.0000    0.0000 C   0  0  0  0  0  0  0  0  0  0  0  0
    0.0000    0.0000    0.0000 C   0  0  0  0  0  0  0  0  0  0  0  0
    0.0000    0.0000    0.0000 C   0  0  0  0  0  0  0  0  0  0  0  0
    0.0000    0.0000    0.0000 C   0  0  0  0  0  0  0  0  0  0  0  0
    0.0000    0.0000    0.0000 C   0  0  0  0  0  0  0  0  0  0  0  0
    0.0000    0.0000    0.0000 C   0  0  0  0  0  0  0  0  0  0  0  0
  1  2  1  0
  2  3  1  0
  3  4  1  0
  4  5  1  0
  5  6  1  0
  6  7  1  0
  7  8  2  0
  8  9  1  0
  9 10  2  0
 10 11  1  0
 10 12  1  0
 12 13  1  0
 12 14  2  0
  6 15  1  0
 15 16  2  0
 16 17  1  0
 17 18  2  0
 18 19  1  0
 19 20  2  0
 20  3  1  0
 14  7  1  0
 20 15  1  0
M  END
>  <pIC50>  (195) 
6.54

>  <ChEMBL_ID>  (195) 
CHEMBL809

>  <document_journal>  (195) 
None

>  <bao_endpoint>  (195) 
BAO_0000190

>  <potential_duplicate>  (195) 
False

>  <uo_units>  (195) 
UO_0000065

>  <canonical_smiles>  (195) 
CN[C@H]1CC[C@@H](c2ccc(Cl)c(Cl)c2)c3ccccc13

>  <parent_molecule_chembl_id>  (195) 
CHEMBL809

>  <assay_type>  (195) 
B

>  <src_id>  (195) 
15

>  <ligand_efficiency>  (195) 
{u'le': u'0.45', u'bei': u'21.35', u'sei': u'54.36', u'lle': u'1.54'}

>  <standard_flag>  (195) 
True

>  <molecule_chembl_id>  (195) 
CHEMBL809

>  <target_organism>  (195) 
Homo sapiens

>  <standard_units>  (195) 
nM

>  <record_id>  (195) 
1540145

>  <document_chembl_id>  (195) 
CHEMBL1909046

>  <bao_format>  (195) 
BAO_0000249

>  <data_validity_description>  (195) 
None

>  <activity_id>  (195) 
7807426

>  <standard_type>  (195) 
IC50

>  <target_chembl_id>  (195) 
CHEMBL1867

>  <data_validity_comment>  (195) 
None

>  <published_value>  (195) 
0.2888

>  <document_year>  (195) 
None

>  <target_pref_name>  (195) 
Alpha-2a adrenergic receptor

>  <assay_chembl_id>  (195) 
CHEMBL1909088

>  <standard_relation>  (195) 
=

>  <assay_description>  (195) 
DRUGMATRIX: Alpha-2A adrenergic receptor radioligand binding (ligand: MK-912)

>  <published_relation>  (195) 
=

>  <standard_value>  (195) 
288.8

>  <qudt_units>  (195) 
http://www.openphacts.org/units/Nanomolar

>  <target_tax_id>  (195) 
9606

>  <bao_label>  (195) 
cell membrane format

>  <published_units>  (195) 
uM

>  <pchembl_value>  (195) 
6.54

>  <published_type>  (195) 
IC50

>  <activity_comment>  (195) 
None

$$$$

     RDKit          

 23 23  0  0  0  0  0  0  0  0999 V2000
    0.0000    0.0000    0.0000 C   0  0  0  0  0  0  0  0  0  0  0  0
    0.0000    0.0000    0.0000 C   0  0  0  0  0  0  0  0  0  0  0  0
    0.0000    0.0000    0.0000 C   0  0  0  0  0  0  0  0  0  0  0  0
    0.0000    0.0000    0.0000 C   0  0  0  0  0  0  0  0  0  0  0  0
    0.0000    0.0000    0.0000 C   0  0  0  0  0  0  0  0  0  0  0  0
    0.0000    0.0000    0.0000 C   0  0  0  0  0  0  0  0  0  0  0  0
    0.0000    0.0000    0.0000 C   0  0  0  0  0  0  0  0  0  0  0  0
    0.0000    0.0000    0.0000 C   0  0  0  0  0  0  0  0  0  0  0  0
    0.0000    0.0000    0.0000 N   0  0  0  0  0  0  0  0  0  0  0  0
    0.0000    0.0000    0.0000 C   0  0  0  0  0  0  0  0  0  0  0  0
    0.0000    0.0000    0.0000 C   0  0  0  0  0  0  0  0  0  0  0  0
    0.0000    0.0000    0.0000 C   0  0  0  0  0  0  0  0  0  0  0  0
    0.0000    0.0000    0.0000 O   0  0  0  0  0  0  0  0  0  0  0  0
    0.0000    0.0000    0.0000 C   0  0  0  0  0  0  0  0  0  0  0  0
    0.0000    0.0000    0.0000 C   0  0  0  0  0  0  0  0  0  0  0  0
    0.0000    0.0000    0.0000 C   0  0  0  0  0  0  0  0  0  0  0  0
    0.0000    0.0000    0.0000 C   0  0  0  0  0  0  0  0  0  0  0  0
    0.0000    0.0000    0.0000 S   0  0  0  0  0  0  0  0  0  0  0  0
    0.0000    0.0000    0.0000 C   0  0  0  0  0  0  0  0  0  0  0  0
    0.0000    0.0000    0.0000 C   0  0  0  0  0  0  0  0  0  0  0  0
    0.0000    0.0000    0.0000 C   0  0  0  0  0  0  0  0  0  0  0  0
    0.0000    0.0000    0.0000 C   0  0  0  0  0  0  0  0  0  0  0  0
    0.0000    0.0000    0.0000 C   0  0  0  0  0  0  0  0  0  0  0  0
  1  2  1  0
  2  3  1  0
  3  4  1  0
  4  5  1  0
  5  6  1  0
  6  7  1  0
  7  8  1  0
  8  9  1  0
  9 10  1  0
 10 11  1  0
 10 12  1  0
 12 13  1  0
 12 14  1  0
 14 15  2  0
 15 16  1  0
 16 17  2  0
 17 18  1  0
 18 19  1  0
 19 20  1  0
 19 21  1  0
 17 22  1  0
 22 23  2  0
 23 14  1  0
M  END
>  <pIC50>  (196) 
5.69

>  <ChEMBL_ID>  (196) 
CHEMBL588119

>  <document_journal>  (196) 
None

>  <bao_endpoint>  (196) 
BAO_0000190

>  <potential_duplicate>  (196) 
False

>  <uo_units>  (196) 
UO_0000065

>  <canonical_smiles>  (196) 
CCCCCCCCN[C@H](C)[C@@H](O)c1ccc(SC(C)C)cc1

>  <parent_molecule_chembl_id>  (196) 
CHEMBL588119

>  <assay_type>  (196) 
B

>  <src_id>  (196) 
15

>  <ligand_efficiency>  (196) 
{u'le': u'0.34', u'bei': u'16.87', u'sei': u'9.89', u'lle': u'0.03'}

>  <standard_flag>  (196) 
True

>  <molecule_chembl_id>  (196) 
CHEMBL588119

>  <target_organism>  (196) 
Homo sapiens

>  <standard_units>  (196) 
nM

>  <record_id>  (196) 
1540186

>  <document_chembl_id>  (196) 
CHEMBL1909046

>  <bao_format>  (196) 
BAO_0000249

>  <data_validity_description>  (196) 
None

>  <activity_id>  (196) 
7810196

>  <standard_type>  (196) 
IC50

>  <target_chembl_id>  (196) 
CHEMBL1867

>  <data_validity_comment>  (196) 
None

>  <published_value>  (196) 
2.0232

>  <document_year>  (196) 
None

>  <target_pref_name>  (196) 
Alpha-2a adrenergic receptor

>  <assay_chembl_id>  (196) 
CHEMBL1909088

>  <standard_relation>  (196) 
=

>  <assay_description>  (196) 
DRUGMATRIX: Alpha-2A adrenergic receptor radioligand binding (ligand: MK-912)

>  <published_relation>  (196) 
=

>  <standard_value>  (196) 
2023.2

>  <qudt_units>  (196) 
http://www.openphacts.org/units/Nanomolar

>  <target_tax_id>  (196) 
9606

>  <bao_label>  (196) 
cell membrane format

>  <published_units>  (196) 
uM

>  <pchembl_value>  (196) 
5.69

>  <published_type>  (196) 
IC50

>  <activity_comment>  (196) 
None

$$$$

     RDKit          

 17 19  0  0  0  0  0  0  0  0999 V2000
    0.0000    0.0000    0.0000 Cl  0  0  0  0  0  0  0  0  0  0  0  0
    0.0000    0.0000    0.0000 C   0  0  0  0  0  0  0  0  0  0  0  0
    0.0000    0.0000    0.0000 C   0  0  0  0  0  0  0  0  0  0  0  0
    0.0000    0.0000    0.0000 C   0  0  0  0  0  0  0  0  0  0  0  0
    0.0000    0.0000    0.0000 C   0  0  0  0  0  0  0  0  0  0  0  0
    0.0000    0.0000    0.0000 C   0  0  0  0  0  0  0  0  0  0  0  0
    0.0000    0.0000    0.0000 C   0  0  0  0  0  0  0  0  0  0  0  0
    0.0000    0.0000    0.0000 C   0  0  0  0  0  0  0  0  0  0  0  0
    0.0000    0.0000    0.0000 N   0  0  0  0  0  0  0  0  0  0  0  0
    0.0000    0.0000    0.0000 C   0  0  0  0  0  0  0  0  0  0  0  0
    0.0000    0.0000    0.0000 C   0  0  0  0  0  0  0  0  0  0  0  0
    0.0000    0.0000    0.0000 C   0  0  0  0  0  0  0  0  0  0  0  0
    0.0000    0.0000    0.0000 S   0  0  0  0  0  0  0  0  0  0  0  0
    0.0000    0.0000    0.0000 C   0  0  0  0  0  0  0  0  0  0  0  0
    0.0000    0.0000    0.0000 C   0  0  0  0  0  0  0  0  0  0  0  0
    0.0000    0.0000    0.0000 C   0  0  0  0  0  0  0  0  0  0  0  0
    0.0000    0.0000    0.0000 C   0  0  0  0  0  0  0  0  0  0  0  0
  1  2  1  0
  2  3  2  0
  3  4  1  0
  4  5  2  0
  5  6  1  0
  6  7  2  0
  7  8  1  0
  8  9  1  0
  9 10  1  0
 10 11  1  0
 11 12  1  0
 12 13  1  0
 13 14  1  0
 14 15  2  0
 15 16  1  0
 16 17  1  0
  7  2  1  0
 17  9  1  0
 16 12  2  0
M  END
>  <pIC50>  (197) 
6.42

>  <ChEMBL_ID>  (197) 
CHEMBL833

>  <document_journal>  (197) 
None

>  <bao_endpoint>  (197) 
BAO_0000190

>  <potential_duplicate>  (197) 
False

>  <uo_units>  (197) 
UO_0000065

>  <canonical_smiles>  (197) 
Clc1ccccc1CN2CCc3sccc3C2

>  <parent_molecule_chembl_id>  (197) 
CHEMBL833

>  <assay_type>  (197) 
B

>  <src_id>  (197) 
15

>  <ligand_efficiency>  (197) 
{u'le': u'0.52', u'bei': u'24.33', u'sei': u'20.39', u'lle': u'2.53'}

>  <standard_flag>  (197) 
True

>  <molecule_chembl_id>  (197) 
CHEMBL833

>  <target_organism>  (197) 
Homo sapiens

>  <standard_units>  (197) 
nM

>  <record_id>  (197) 
1540219

>  <document_chembl_id>  (197) 
CHEMBL1909046

>  <bao_format>  (197) 
BAO_0000249

>  <data_validity_description>  (197) 
None

>  <activity_id>  (197) 
7810766

>  <standard_type>  (197) 
IC50

>  <target_chembl_id>  (197) 
CHEMBL1867

>  <data_validity_comment>  (197) 
None

>  <published_value>  (197) 
0.382

>  <document_year>  (197) 
None

>  <target_pref_name>  (197) 
Alpha-2a adrenergic receptor

>  <assay_chembl_id>  (197) 
CHEMBL1909088

>  <standard_relation>  (197) 
=

>  <assay_description>  (197) 
DRUGMATRIX: Alpha-2A adrenergic receptor radioligand binding (ligand: MK-912)

>  <published_relation>  (197) 
=

>  <standard_value>  (197) 
382

>  <qudt_units>  (197) 
http://www.openphacts.org/units/Nanomolar

>  <target_tax_id>  (197) 
9606

>  <bao_label>  (197) 
cell membrane format

>  <published_units>  (197) 
uM

>  <pchembl_value>  (197) 
6.42

>  <published_type>  (197) 
IC50

>  <activity_comment>  (197) 
None

$$$$

     RDKit          

 36 40  0  0  0  0  0  0  0  0999 V2000
    0.0000    0.0000    0.0000 C   0  0  0  0  0  0  0  0  0  0  0  0
    0.0000    0.0000    0.0000 C   0  0  0  0  0  0  0  0  0  0  0  0
    0.0000    0.0000    0.0000 C   0  0  0  0  0  0  0  0  0  0  0  0
    0.0000    0.0000    0.0000 N   0  0  0  0  0  0  0  0  0  0  0  0
    0.0000    0.0000    0.0000 C   0  0  0  0  0  0  0  0  0  0  0  0
    0.0000    0.0000    0.0000 C   0  0  0  0  0  0  0  0  0  0  0  0
    0.0000    0.0000    0.0000 N   0  0  0  0  0  0  0  0  0  0  0  0
    0.0000    0.0000    0.0000 C   0  0  0  0  0  0  0  0  0  0  0  0
    0.0000    0.0000    0.0000 C   0  0  0  0  0  0  0  0  0  0  0  0
    0.0000    0.0000    0.0000 C   0  0  0  0  0  0  0  0  0  0  0  0
    0.0000    0.0000    0.0000 C   0  0  0  0  0  0  0  0  0  0  0  0
    0.0000    0.0000    0.0000 C   0  0  0  0  0  0  0  0  0  0  0  0
    0.0000    0.0000    0.0000 C   0  0  0  0  0  0  0  0  0  0  0  0
    0.0000    0.0000    0.0000 O   0  0  0  0  0  0  0  0  0  0  0  0
    0.0000    0.0000    0.0000 C   0  0  0  0  0  0  0  0  0  0  0  0
    0.0000    0.0000    0.0000 C   0  0  0  0  0  0  0  0  0  0  0  0
    0.0000    0.0000    0.0000 C   0  0  0  0  0  0  0  0  0  0  0  0
    0.0000    0.0000    0.0000 O   0  0  0  0  0  0  0  0  0  0  0  0
    0.0000    0.0000    0.0000 C   0  0  0  0  0  0  0  0  0  0  0  0
    0.0000    0.0000    0.0000 C   0  0  0  0  0  0  0  0  0  0  0  0
    0.0000    0.0000    0.0000 N   0  0  0  0  0  0  0  0  0  0  0  0
    0.0000    0.0000    0.0000 C   0  0  0  0  0  0  0  0  0  0  0  0
    0.0000    0.0000    0.0000 N   0  0  0  0  0  0  0  0  0  0  0  0
    0.0000    0.0000    0.0000 C   0  0  0  0  0  0  0  0  0  0  0  0
    0.0000    0.0000    0.0000 N   0  0  0  0  0  0  0  0  0  0  0  0
    0.0000    0.0000    0.0000 O   0  0  0  0  0  0  0  0  0  0  0  0
    0.0000    0.0000    0.0000 C   0  0  0  0  0  0  0  0  0  0  0  0
    0.0000    0.0000    0.0000 C   0  0  0  0  0  0  0  0  0  0  0  0
    0.0000    0.0000    0.0000 C   0  0  0  0  0  0  0  0  0  0  0  0
    0.0000    0.0000    0.0000 C   0  0  0  0  0  0  0  0  0  0  0  0
    0.0000    0.0000    0.0000 Cl  0  0  0  0  0  0  0  0  0  0  0  0
    0.0000    0.0000    0.0000 C   0  0  0  0  0  0  0  0  0  0  0  0
    0.0000    0.0000    0.0000 C   0  0  0  0  0  0  0  0  0  0  0  0
    0.0000    0.0000    0.0000 Cl  0  0  0  0  0  0  0  0  0  0  0  0
    0.0000    0.0000    0.0000 C   0  0  0  0  0  0  0  0  0  0  0  0
    0.0000    0.0000    0.0000 C   0  0  0  0  0  0  0  0  0  0  0  0
  1  2  1  0
  2  3  1  0
  2  4  1  0
  4  5  1  0
  5  6  1  0
  6  7  1  0
  7  8  1  0
  8  9  1  0
  7 10  1  0
 10 11  2  0
 11 12  1  0
 12 13  2  0
 13 14  1  0
 14 15  1  0
 15 16  1  0
 16 17  1  0
 17 18  1  0
 18 19  1  0
 19 20  1  0
 20 21  1  0
 21 22  1  0
 22 23  2  0
 23 24  1  0
 24 25  2  0
 19 26  1  0
 19 27  1  0
 27 28  2  0
 28 29  1  0
 29 30  2  0
 30 31  1  0
 30 32  1  0
 32 33  2  0
 33 34  1  0
 13 35  1  0
 35 36  2  0
  9  4  1  0
 36 10  1  0
 26 16  1  0
 25 21  1  0
 33 27  1  0
M  END
>  <pIC50>  (198) 
6.01

>  <ChEMBL_ID>  (198) 
CHEMBL1306

>  <document_journal>  (198) 
None

>  <bao_endpoint>  (198) 
BAO_0000190

>  <potential_duplicate>  (198) 
False

>  <uo_units>  (198) 
UO_0000065

>  <canonical_smiles>  (198) 
CC(C)N1CCN(CC1)c2ccc(OC[C@H]3CO[C@@](Cn4cncn4)(O3)c5ccc(Cl)cc5Cl)cc2

>  <parent_molecule_chembl_id>  (198) 
CHEMBL1306

>  <assay_type>  (198) 
B

>  <src_id>  (198) 
15

>  <ligand_efficiency>  (198) 
{u'le': u'0.23', u'bei': u'11.28', u'sei': u'9.26', u'lle': u'1.06'}

>  <standard_flag>  (198) 
True

>  <molecule_chembl_id>  (198) 
CHEMBL1306

>  <target_organism>  (198) 
Homo sapiens

>  <standard_units>  (198) 
nM

>  <record_id>  (198) 
1540203

>  <document_chembl_id>  (198) 
CHEMBL1909046

>  <bao_format>  (198) 
BAO_0000249

>  <data_validity_description>  (198) 
None

>  <activity_id>  (198) 
7812628

>  <standard_type>  (198) 
IC50

>  <target_chembl_id>  (198) 
CHEMBL1867

>  <data_validity_comment>  (198) 
None

>  <published_value>  (198) 
0.983

>  <document_year>  (198) 
None

>  <target_pref_name>  (198) 
Alpha-2a adrenergic receptor

>  <assay_chembl_id>  (198) 
CHEMBL1909088

>  <standard_relation>  (198) 
=

>  <assay_description>  (198) 
DRUGMATRIX: Alpha-2A adrenergic receptor radioligand binding (ligand: MK-912)

>  <published_relation>  (198) 
=

>  <standard_value>  (198) 
983

>  <qudt_units>  (198) 
http://www.openphacts.org/units/Nanomolar

>  <target_tax_id>  (198) 
9606

>  <bao_label>  (198) 
cell membrane format

>  <published_units>  (198) 
uM

>  <pchembl_value>  (198) 
6.01

>  <published_type>  (198) 
IC50

>  <activity_comment>  (198) 
None

$$$$

     RDKit          

 23 24  0  0  0  0  0  0  0  0999 V2000
    0.0000    0.0000    0.0000 C   0  0  0  0  0  0  0  0  0  0  0  0
    0.0000    0.0000    0.0000 C   0  0  0  0  0  0  0  0  0  0  0  0
    0.0000    0.0000    0.0000 N   0  0  0  0  0  0  0  0  0  0  0  0
    0.0000    0.0000    0.0000 C   0  0  0  0  0  0  0  0  0  0  0  0
    0.0000    0.0000    0.0000 C   0  0  0  0  0  0  0  0  0  0  0  0
    0.0000    0.0000    0.0000 C   0  0  0  0  0  0  0  0  0  0  0  0
    0.0000    0.0000    0.0000 C   0  0  0  0  0  0  0  0  0  0  0  0
    0.0000    0.0000    0.0000 C   0  0  0  0  0  0  0  0  0  0  0  0
    0.0000    0.0000    0.0000 N   0  0  0  0  0  0  0  0  0  0  0  0
    0.0000    0.0000    0.0000 C   0  0  0  0  0  0  0  0  0  0  0  0
    0.0000    0.0000    0.0000 O   0  0  0  0  0  0  0  0  0  0  0  0
    0.0000    0.0000    0.0000 C   0  0  0  0  0  0  0  0  0  0  0  0
    0.0000    0.0000    0.0000 C   0  0  0  0  0  0  0  0  0  0  0  0
    0.0000    0.0000    0.0000 C   0  0  0  0  0  0  0  0  0  0  0  0
    0.0000    0.0000    0.0000 C   0  0  0  0  0  0  0  0  0  0  0  0
    0.0000    0.0000    0.0000 C   0  0  0  0  0  0  0  0  0  0  0  0
    0.0000    0.0000    0.0000 C   0  0  0  0  0  0  0  0  0  0  0  0
    0.0000    0.0000    0.0000 O   0  0  0  0  0  0  0  0  0  0  0  0
    0.0000    0.0000    0.0000 C   0  0  0  0  0  0  0  0  0  0  0  0
    0.0000    0.0000    0.0000 S   0  0  0  0  0  0  0  0  0  0  0  0
    0.0000    0.0000    0.0000 O   0  0  0  0  0  0  0  0  0  0  0  0
    0.0000    0.0000    0.0000 O   0  0  0  0  0  0  0  0  0  0  0  0
    0.0000    0.0000    0.0000 N   0  0  0  0  0  0  0  0  0  0  0  0
  1  2  1  0
  2  3  1  0
  3  4  1  0
  4  5  1  0
  5  6  1  0
  6  7  1  0
  7  8  1  0
  8  9  1  0
  9 10  1  0
 10 11  2  0
 10 12  1  0
 12 13  2  0
 13 14  1  0
 14 15  2  0
 15 16  1  0
 16 17  2  0
 17 18  1  0
 18 19  1  0
 14 20  1  0
 20 21  2  0
 20 22  2  0
 20 23  1  0
  7  3  1  0
 17 12  1  0
M  END
>  <pIC50>  (199) 
5.7

>  <ChEMBL_ID>  (199) 
CHEMBL26

>  <document_journal>  (199) 
None

>  <bao_endpoint>  (199) 
BAO_0000190

>  <potential_duplicate>  (199) 
False

>  <uo_units>  (199) 
UO_0000065

>  <canonical_smiles>  (199) 
CCN1CCCC1CNC(=O)c2cc(ccc2OC)S(=O)(=O)N

>  <parent_molecule_chembl_id>  (199) 
CHEMBL26

>  <assay_type>  (199) 
B

>  <src_id>  (199) 
15

>  <ligand_efficiency>  (199) 
{u'le': u'0.34', u'bei': u'16.68', u'sei': u'5.17', u'lle': u'4.99'}

>  <standard_flag>  (199) 
True

>  <molecule_chembl_id>  (199) 
CHEMBL26

>  <target_organism>  (199) 
Homo sapiens

>  <standard_units>  (199) 
nM

>  <record_id>  (199) 
1540187

>  <document_chembl_id>  (199) 
CHEMBL1909046

>  <bao_format>  (199) 
BAO_0000249

>  <data_validity_description>  (199) 
None

>  <activity_id>  (199) 
7814458

>  <standard_type>  (199) 
IC50

>  <target_chembl_id>  (199) 
CHEMBL1867

>  <data_validity_comment>  (199) 
None

>  <published_value>  (199) 
2.019

>  <document_year>  (199) 
None

>  <target_pref_name>  (199) 
Alpha-2a adrenergic receptor

>  <assay_chembl_id>  (199) 
CHEMBL1909088

>  <standard_relation>  (199) 
=

>  <assay_description>  (199) 
DRUGMATRIX: Alpha-2A adrenergic receptor radioligand binding (ligand: MK-912)

>  <published_relation>  (199) 
=

>  <standard_value>  (199) 
2019

>  <qudt_units>  (199) 
http://www.openphacts.org/units/Nanomolar

>  <target_tax_id>  (199) 
9606

>  <bao_label>  (199) 
cell membrane format

>  <published_units>  (199) 
uM

>  <pchembl_value>  (199) 
5.7

>  <published_type>  (199) 
IC50

>  <activity_comment>  (199) 
None

$$$$

     RDKit          

 34 38  0  0  0  0  0  0  0  0999 V2000
    0.0000    0.0000    0.0000 O   0  0  0  0  0  0  0  0  0  0  0  0
    0.0000    0.0000    0.0000 C   0  0  0  0  0  0  0  0  0  0  0  0
    0.0000    0.0000    0.0000 C   0  0  0  0  0  0  0  0  0  0  0  0
    0.0000    0.0000    0.0000 C   0  0  0  0  0  0  0  0  0  0  0  0
    0.0000    0.0000    0.0000 C   0  0  0  0  0  0  0  0  0  0  0  0
    0.0000    0.0000    0.0000 C   0  0  0  0  0  0  0  0  0  0  0  0
    0.0000    0.0000    0.0000 C   0  0  0  0  0  0  0  0  0  0  0  0
    0.0000    0.0000    0.0000 C   0  0  0  0  0  0  0  0  0  0  0  0
    0.0000    0.0000    0.0000 S   0  0  0  0  0  0  0  0  0  0  0  0
    0.0000    0.0000    0.0000 C   0  0  0  0  0  0  0  0  0  0  0  0
    0.0000    0.0000    0.0000 C   0  0  0  0  0  0  0  0  0  0  0  0
    0.0000    0.0000    0.0000 C   0  0  0  0  0  0  0  0  0  0  0  0
    0.0000    0.0000    0.0000 O   0  0  0  0  0  0  0  0  0  0  0  0
    0.0000    0.0000    0.0000 C   0  0  0  0  0  0  0  0  0  0  0  0
    0.0000    0.0000    0.0000 C   0  0  0  0  0  0  0  0  0  0  0  0
    0.0000    0.0000    0.0000 C   0  0  0  0  0  0  0  0  0  0  0  0
    0.0000    0.0000    0.0000 C   0  0  0  0  0  0  0  0  0  0  0  0
    0.0000    0.0000    0.0000 C   0  0  0  0  0  0  0  0  0  0  0  0
    0.0000    0.0000    0.0000 O   0  0  0  0  0  0  0  0  0  0  0  0
    0.0000    0.0000    0.0000 C   0  0  0  0  0  0  0  0  0  0  0  0
    0.0000    0.0000    0.0000 C   0  0  0  0  0  0  0  0  0  0  0  0
    0.0000    0.0000    0.0000 C   0  0  0  0  0  0  0  0  0  0  0  0
    0.0000    0.0000    0.0000 C   0  0  0  0  0  0  0  0  0  0  0  0
    0.0000    0.0000    0.0000 O   0  0  0  0  0  0  0  0  0  0  0  0
    0.0000    0.0000    0.0000 C   0  0  0  0  0  0  0  0  0  0  0  0
    0.0000    0.0000    0.0000 C   0  0  0  0  0  0  0  0  0  0  0  0
    0.0000    0.0000    0.0000 N   0  0  0  0  0  0  0  0  0  0  0  0
    0.0000    0.0000    0.0000 C   0  0  0  0  0  0  0  0  0  0  0  0
    0.0000    0.0000    0.0000 C   0  0  0  0  0  0  0  0  0  0  0  0
    0.0000    0.0000    0.0000 C   0  0  0  0  0  0  0  0  0  0  0  0
    0.0000    0.0000    0.0000 C   0  0  0  0  0  0  0  0  0  0  0  0
    0.0000    0.0000    0.0000 C   0  0  0  0  0  0  0  0  0  0  0  0
    0.0000    0.0000    0.0000 C   0  0  0  0  0  0  0  0  0  0  0  0
    0.0000    0.0000    0.0000 C   0  0  0  0  0  0  0  0  0  0  0  0
  1  2  1  0
  2  3  2  0
  3  4  1  0
  4  5  2  0
  5  6  1  0
  6  7  2  0
  5  8  1  0
  8  9  1  0
  9 10  1  0
 10 11  2  0
 11 12  1  0
 12 13  1  0
 12 14  2  0
 14 15  1  0
 15 16  2  0
 16 17  1  0
 17 18  1  0
 18 19  2  0
 18 20  1  0
 20 21  2  0
 21 22  1  0
 22 23  2  0
 23 24  1  0
 24 25  1  0
 25 26  1  0
 26 27  1  0
 27 28  1  0
 28 29  1  0
 29 30  1  0
 30 31  1  0
 31 32  1  0
 23 33  1  0
 33 34  2  0
  7  2  1  0
 17  8  2  0
 16 10  1  0
 34 20  1  0
 32 27  1  0
M  END
>  <pIC50>  (200) 
5.78

>  <ChEMBL_ID>  (200) 
CHEMBL81

>  <document_journal>  (200) 
None

>  <bao_endpoint>  (200) 
BAO_0000190

>  <potential_duplicate>  (200) 
False

>  <uo_units>  (200) 
UO_0000065

>  <canonical_smiles>  (200) 
Oc1ccc(cc1)c2sc3cc(O)ccc3c2C(=O)c4ccc(OCCN5CCCCC5)cc4

>  <parent_molecule_chembl_id>  (200) 
CHEMBL81

>  <assay_type>  (200) 
B

>  <src_id>  (200) 
15

>  <ligand_efficiency>  (200) 
{u'le': u'0.23', u'bei': u'12.2', u'sei': u'5.88', u'lle': u'-0.68'}

>  <standard_flag>  (200) 
True

>  <molecule_chembl_id>  (200) 
CHEMBL81

>  <target_organism>  (200) 
Homo sapiens

>  <standard_units>  (200) 
nM

>  <record_id>  (200) 
1540107

>  <document_chembl_id>  (200) 
CHEMBL1909046

>  <bao_format>  (200) 
BAO_0000249

>  <data_validity_description>  (200) 
None

>  <activity_id>  (200) 
7817446

>  <standard_type>  (200) 
IC50

>  <target_chembl_id>  (200) 
CHEMBL1867

>  <data_validity_comment>  (200) 
None

>  <published_value>  (200) 
1.664

>  <document_year>  (200) 
None

>  <target_pref_name>  (200) 
Alpha-2a adrenergic receptor

>  <assay_chembl_id>  (200) 
CHEMBL1909088

>  <standard_relation>  (200) 
=

>  <assay_description>  (200) 
DRUGMATRIX: Alpha-2A adrenergic receptor radioligand binding (ligand: MK-912)

>  <published_relation>  (200) 
=

>  <standard_value>  (200) 
1664

>  <qudt_units>  (200) 
http://www.openphacts.org/units/Nanomolar

>  <target_tax_id>  (200) 
9606

>  <bao_label>  (200) 
cell membrane format

>  <published_units>  (200) 
uM

>  <pchembl_value>  (200) 
5.78

>  <published_type>  (200) 
IC50

>  <activity_comment>  (200) 
None

$$$$

     RDKit          

 23 26  0  0  0  0  0  0  0  0999 V2000
    0.0000    0.0000    0.0000 N   0  0  0  0  0  0  0  0  0  0  0  0
    0.0000    0.0000    0.0000 C   0  0  0  0  0  0  0  0  0  0  0  0
    0.0000    0.0000    0.0000 N   0  0  0  0  0  0  0  0  0  0  0  0
    0.0000    0.0000    0.0000 C   0  0  0  0  0  0  0  0  0  0  0  0
    0.0000    0.0000    0.0000 C   0  0  0  0  0  0  0  0  0  0  0  0
    0.0000    0.0000    0.0000 C   0  0  0  0  0  0  0  0  0  0  0  0
    0.0000    0.0000    0.0000 C   0  0  0  0  0  0  0  0  0  0  0  0
    0.0000    0.0000    0.0000 N   0  0  0  0  0  0  0  0  0  0  0  0
    0.0000    0.0000    0.0000 C   0  0  0  0  0  0  0  0  0  0  0  0
    0.0000    0.0000    0.0000 C   0  0  0  0  0  0  0  0  0  0  0  0
    0.0000    0.0000    0.0000 C   0  0  0  0  0  0  0  0  0  0  0  0
    0.0000    0.0000    0.0000 C   0  0  0  0  0  0  0  0  0  0  0  0
    0.0000    0.0000    0.0000 C   0  0  0  0  0  0  0  0  0  0  0  0
    0.0000    0.0000    0.0000 C   0  0  0  0  0  0  0  0  0  0  0  0
    0.0000    0.0000    0.0000 C   0  0  0  0  0  0  0  0  0  0  0  0
    0.0000    0.0000    0.0000 N   0  0  0  0  0  0  0  0  0  0  0  0
    0.0000    0.0000    0.0000 C   0  0  0  0  0  0  0  0  0  0  0  0
    0.0000    0.0000    0.0000 C   0  0  0  0  0  0  0  0  0  0  0  0
    0.0000    0.0000    0.0000 C   0  0  0  0  0  0  0  0  0  0  0  0
    0.0000    0.0000    0.0000 C   0  0  0  0  0  0  0  0  0  0  0  0
    0.0000    0.0000    0.0000 C   0  0  0  0  0  0  0  0  0  0  0  0
    0.0000    0.0000    0.0000 C   0  0  0  0  0  0  0  0  0  0  0  0
    0.0000    0.0000    0.0000 S   0  0  0  0  0  0  0  0  0  0  0  0
  1  2  2  0
  2  3  1  0
  3  4  1  0
  4  5  2  0
  5  6  1  0
  6  7  2  0
  7  8  1  0
  8  9  1  0
  9 10  1  0
 10 11  1  0
 11 12  2  0
  8 13  1  0
 13 14  1  0
 14 15  1  0
 15 16  1  0
 16 17  1  0
 17 18  1  0
  2 19  1  0
 19 20  2  0
 20 21  1  0
 21 22  2  0
 22 23  1  0
 12  4  1  0
 11  7  1  0
 18 13  1  0
 23 19  1  0
M  END
>  <pIC50>  (201) 
4.62

>  <ChEMBL_ID>  (201) 
CHEMBL2203713

>  <document_journal>  (201) 
Eur. J. Med. Chem.

>  <bao_endpoint>  (201) 
BAO_0000190

>  <potential_duplicate>  (201) 
False

>  <uo_units>  (201) 
UO_0000065

>  <canonical_smiles>  (201) 
N=C(Nc1ccc2N(CCc2c1)C3CCNCC3)c4cccs4

>  <parent_molecule_chembl_id>  (201) 
CHEMBL2203713

>  <assay_type>  (201) 
B

>  <src_id>  (201) 
1

>  <ligand_efficiency>  (201) 
{u'le': u'0.27', u'bei': u'14.15', u'sei': u'5.82', u'lle': u'2.19'}

>  <standard_flag>  (201) 
True

>  <molecule_chembl_id>  (201) 
CHEMBL2203713

>  <target_organism>  (201) 
Homo sapiens

>  <standard_units>  (201) 
nM

>  <record_id>  (201) 
1756315

>  <document_chembl_id>  (201) 
CHEMBL2203205

>  <bao_format>  (201) 
BAO_0000357

>  <data_validity_description>  (201) 
None

>  <activity_id>  (201) 
12166364

>  <standard_type>  (201) 
IC50

>  <target_chembl_id>  (201) 
CHEMBL1867

>  <data_validity_comment>  (201) 
None

>  <published_value>  (201) 
24

>  <document_year>  (201) 
2012

>  <target_pref_name>  (201) 
Alpha-2a adrenergic receptor

>  <assay_chembl_id>  (201) 
CHEMBL2209827

>  <standard_relation>  (201) 
=

>  <assay_description>  (201) 
Inhibition of alpha2A adrenergic receptor

>  <published_relation>  (201) 
=

>  <standard_value>  (201) 
24000

>  <qudt_units>  (201) 
http://www.openphacts.org/units/Nanomolar

>  <target_tax_id>  (201) 
9606

>  <bao_label>  (201) 
single protein format

>  <published_units>  (201) 
uM

>  <pchembl_value>  (201) 
4.62

>  <published_type>  (201) 
IC50

>  <activity_comment>  (201) 
None

$$$$

     RDKit          

 20 21  0  0  0  0  0  0  0  0999 V2000
    0.0000    0.0000    0.0000 C   0  0  0  0  0  0  0  0  0  0  0  0
    0.0000    0.0000    0.0000 C   0  0  0  0  0  0  0  0  0  0  0  0
    0.0000    0.0000    0.0000 C   0  0  0  0  0  0  0  0  0  0  0  0
    0.0000    0.0000    0.0000 N   0  0  0  0  0  0  0  0  0  0  0  0
    0.0000    0.0000    0.0000 C   0  0  0  0  0  0  0  0  0  0  0  0
    0.0000    0.0000    0.0000 C   0  0  0  0  0  0  0  0  0  0  0  0
    0.0000    0.0000    0.0000 C   0  0  0  0  0  0  0  0  0  0  0  0
    0.0000    0.0000    0.0000 O   0  0  0  0  0  0  0  0  0  0  0  0
    0.0000    0.0000    0.0000 C   0  0  0  0  0  0  0  0  0  0  0  0
    0.0000    0.0000    0.0000 O   0  0  0  0  0  0  0  0  0  0  0  0
    0.0000    0.0000    0.0000 C   0  0  0  0  0  0  0  0  0  0  0  0
    0.0000    0.0000    0.0000 C   0  0  0  0  0  0  0  0  0  0  0  0
    0.0000    0.0000    0.0000 C   0  0  0  0  0  0  0  0  0  0  0  0
    0.0000    0.0000    0.0000 C   0  0  0  0  0  0  0  0  0  0  0  0
    0.0000    0.0000    0.0000 C   0  0  0  0  0  0  0  0  0  0  0  0
    0.0000    0.0000    0.0000 C   0  0  0  0  0  0  0  0  0  0  0  0
    0.0000    0.0000    0.0000 C   0  0  0  0  0  0  0  0  0  0  0  0
    0.0000    0.0000    0.0000 C   0  0  0  0  0  0  0  0  0  0  0  0
    0.0000    0.0000    0.0000 C   0  0  0  0  0  0  0  0  0  0  0  0
    0.0000    0.0000    0.0000 C   0  0  0  0  0  0  0  0  0  0  0  0
  1  2  1  0
  2  3  1  0
  2  4  1  0
  4  5  1  0
  5  6  1  0
  5  7  1  0
  7  8  1  0
  7  9  1  0
  9 10  1  0
 10 11  1  0
 11 12  2  0
 12 13  1  0
 13 14  2  0
 14 15  1  0
 14 16  1  0
 16 17  1  0
 17 18  1  0
 18 19  1  0
 19 20  1  0
 20 11  1  0
 20 16  2  0
M  END
>  <pIC50>  (202) 
9.3

>  <ChEMBL_ID>  (202) 
CHEMBL513389

>  <document_journal>  (202) 
Bioorg. Med. Chem.

>  <bao_endpoint>  (202) 
BAO_0000190

>  <potential_duplicate>  (202) 
False

>  <uo_units>  (202) 
UO_0000065

>  <canonical_smiles>  (202) 
CC(C)NC(C)C(O)COc1ccc(C)c2CCCc12

>  <parent_molecule_chembl_id>  (202) 
CHEMBL513389

>  <assay_type>  (202) 
B

>  <src_id>  (202) 
1

>  <ligand_efficiency>  (202) 
{u'le': u'0.64', u'bei': u'33.53', u'sei': u'22.42', u'lle': u'5.75'}

>  <standard_flag>  (202) 
True

>  <molecule_chembl_id>  (202) 
CHEMBL513389

>  <target_organism>  (202) 
Homo sapiens

>  <standard_units>  (202) 
nM

>  <record_id>  (202) 
1898819

>  <document_chembl_id>  (202) 
CHEMBL2390917

>  <bao_format>  (202) 
BAO_0000357

>  <data_validity_description>  (202) 
None

>  <activity_id>  (202) 
13336214

>  <standard_type>  (202) 
IC50

>  <target_chembl_id>  (202) 
CHEMBL1867

>  <data_validity_comment>  (202) 
None

>  <published_value>  (202) 
0.5

>  <document_year>  (202) 
2013

>  <target_pref_name>  (202) 
Alpha-2a adrenergic receptor

>  <assay_chembl_id>  (202) 
CHEMBL2395774

>  <standard_relation>  (202) 
=

>  <assay_description>  (202) 
Binding affinity to human adrenergic alpha2 receptor by radioligand displacement assay

>  <published_relation>  (202) 
=

>  <standard_value>  (202) 
0.5

>  <qudt_units>  (202) 
http://www.openphacts.org/units/Nanomolar

>  <target_tax_id>  (202) 
9606

>  <bao_label>  (202) 
single protein format

>  <published_units>  (202) 
nM

>  <pchembl_value>  (202) 
9.3

>  <published_type>  (202) 
IC50

>  <activity_comment>  (202) 
None

$$$$

     RDKit          

 37 39  0  0  0  0  0  0  0  0999 V2000
    0.0000    0.0000    0.0000 C   0  0  0  0  0  0  0  0  0  0  0  0
    0.0000    0.0000    0.0000 O   0  0  0  0  0  0  0  0  0  0  0  0
    0.0000    0.0000    0.0000 C   0  0  0  0  0  0  0  0  0  0  0  0
    0.0000    0.0000    0.0000 C   0  0  0  0  0  0  0  0  0  0  0  0
    0.0000    0.0000    0.0000 C   0  0  0  0  0  0  0  0  0  0  0  0
    0.0000    0.0000    0.0000 O   0  0  0  0  0  0  0  0  0  0  0  0
    0.0000    0.0000    0.0000 C   0  0  0  0  0  0  0  0  0  0  0  0
    0.0000    0.0000    0.0000 C   0  0  0  0  0  0  0  0  0  0  0  0
    0.0000    0.0000    0.0000 C   0  0  0  0  0  0  0  0  0  0  0  0
    0.0000    0.0000    0.0000 C   0  0  0  0  0  0  0  0  0  0  0  0
    0.0000    0.0000    0.0000 C   0  0  0  0  0  0  0  0  0  0  0  0
    0.0000    0.0000    0.0000 C   0  0  0  0  0  0  0  0  0  0  0  0
    0.0000    0.0000    0.0000 O   0  0  0  0  0  0  0  0  0  0  0  0
    0.0000    0.0000    0.0000 C   0  0  0  0  0  0  0  0  0  0  0  0
    0.0000    0.0000    0.0000 C   0  0  0  0  0  0  0  0  0  0  0  0
    0.0000    0.0000    0.0000 O   0  0  0  0  0  0  0  0  0  0  0  0
    0.0000    0.0000    0.0000 N   0  0  0  0  0  0  0  0  0  0  0  0
    0.0000    0.0000    0.0000 C   0  0  0  0  0  0  0  0  0  0  0  0
    0.0000    0.0000    0.0000 C   0  0  0  0  0  0  0  0  0  0  0  0
    0.0000    0.0000    0.0000 C   0  0  0  0  0  0  0  0  0  0  0  0
    0.0000    0.0000    0.0000 N   0  0  0  0  0  0  0  0  0  0  0  0
    0.0000    0.0000    0.0000 C   0  0  0  0  0  0  0  0  0  0  0  0
    0.0000    0.0000    0.0000 C   0  0  0  0  0  0  0  0  0  0  0  0
    0.0000    0.0000    0.0000 O   0  0  0  0  0  0  0  0  0  0  0  0
    0.0000    0.0000    0.0000 C   0  0  0  0  0  0  0  0  0  0  0  0
    0.0000    0.0000    0.0000 O   0  0  0  0  0  0  0  0  0  0  0  0
    0.0000    0.0000    0.0000 N   0  0  0  0  0  0  0  0  0  0  0  0
    0.0000    0.0000    0.0000 C   0  0  0  0  0  0  0  0  0  0  0  0
    0.0000    0.0000    0.0000 C   0  0  0  0  0  0  0  0  0  0  0  0
    0.0000    0.0000    0.0000 C   0  0  0  0  0  0  0  0  0  0  0  0
    0.0000    0.0000    0.0000 C   0  0  0  0  0  0  0  0  0  0  0  0
    0.0000    0.0000    0.0000 C   0  0  0  0  0  0  0  0  0  0  0  0
    0.0000    0.0000    0.0000 C   0  0  0  0  0  0  0  0  0  0  0  0
    0.0000    0.0000    0.0000 C   0  0  0  0  0  0  0  0  0  0  0  0
    0.0000    0.0000    0.0000 C   0  0  0  0  0  0  0  0  0  0  0  0
    0.0000    0.0000    0.0000 C   0  0  0  0  0  0  0  0  0  0  0  0
    0.0000    0.0000    0.0000 C   0  0  0  0  0  0  0  0  0  0  0  0
  1  2  1  0
  2  3  1  0
  3  4  1  0
  4  5  1  0
  5  6  1  0
  6  7  1  0
  7  8  2  0
  8  9  1  0
  9 10  2  0
 10 11  1  0
 11 12  2  0
 12 13  1  0
 13 14  1  0
  9 15  1  0
 15 16  2  0
 15 17  1  0
 17 18  1  0
 18 19  1  0
 19 20  1  0
 20 21  1  0
 21 22  1  0
 22 23  1  0
 23 24  1  0
 24 25  1  0
 25 26  2  0
 25 27  1  0
 27 28  1  0
 28 29  1  0
 29 30  2  0
 30 31  1  0
 31 32  2  0
 32 33  1  0
 33 34  2  0
 17 35  1  0
 35 36  1  0
 35 37  1  0
 12  7  1  0
 23 19  1  0
 34 29  1  0
M  END
>  <pIC50>  (203) 
6.0

>  <ChEMBL_ID>  (203) 
CHEMBL3403995

>  <document_journal>  (203) 
Bioorg. Med. Chem. Lett.

>  <bao_endpoint>  (203) 
BAO_0000190

>  <potential_duplicate>  (203) 
False

>  <uo_units>  (203) 
UO_0000065

>  <canonical_smiles>  (203) 
COCCCOc1cc(ccc1OC)C(=O)N(C[C@@H]2CNC[C@H]2OC(=O)NCc3ccccc3)C(C)C

>  <parent_molecule_chembl_id>  (203) 
CHEMBL3403995

>  <assay_type>  (203) 
B

>  <src_id>  (203) 
1

>  <ligand_efficiency>  (203) 
{u'le': u'0.22', u'bei': u'11.68', u'sei': u'6.1', u'lle': u'3.21'}

>  <standard_flag>  (203) 
True

>  <molecule_chembl_id>  (203) 
CHEMBL3403995

>  <target_organism>  (203) 
Homo sapiens

>  <standard_units>  (203) 
nM

>  <record_id>  (203) 
2285641

>  <document_chembl_id>  (203) 
CHEMBL3400053

>  <bao_format>  (203) 
BAO_0000357

>  <data_validity_description>  (203) 
None

>  <activity_id>  (203) 
15178026

>  <standard_type>  (203) 
IC50

>  <target_chembl_id>  (203) 
CHEMBL1867

>  <data_validity_comment>  (203) 
None

>  <published_value>  (203) 
1

>  <document_year>  (203) 
2015

>  <target_pref_name>  (203) 
Alpha-2a adrenergic receptor

>  <assay_chembl_id>  (203) 
CHEMBL3406661

>  <standard_relation>  (203) 
=

>  <assay_description>  (203) 
Inhibition of alpha-adrenoceptor 2A (unknown origin)

>  <published_relation>  (203) 
=

>  <standard_value>  (203) 
1000

>  <qudt_units>  (203) 
http://www.openphacts.org/units/Nanomolar

>  <target_tax_id>  (203) 
9606

>  <bao_label>  (203) 
single protein format

>  <published_units>  (203) 
uM

>  <pchembl_value>  (203) 
6

>  <published_type>  (203) 
IC50

>  <activity_comment>  (203) 
None

$$$$
