
     RDKit          

 39 40  0  0  0  0  0  0  0  0999 V2000
    0.0000    0.0000    0.0000 C   0  0  0  0  0  0  0  0  0  0  0  0
    0.0000    0.0000    0.0000 N   0  0  0  0  0  0  0  0  0  0  0  0
    0.0000    0.0000    0.0000 C   0  0  0  0  0  0  0  0  0  0  0  0
    0.0000    0.0000    0.0000 C   0  0  0  0  0  0  0  0  0  0  0  0
    0.0000    0.0000    0.0000 C   0  0  0  0  0  0  0  0  0  0  0  0
    0.0000    0.0000    0.0000 C   0  0  0  0  0  0  0  0  0  0  0  0
    0.0000    0.0000    0.0000 C   0  0  0  0  0  0  0  0  0  0  0  0
    0.0000    0.0000    0.0000 C   0  0  0  0  0  0  0  0  0  0  0  0
    0.0000    0.0000    0.0000 C   0  0  0  0  0  0  0  0  0  0  0  0
    0.0000    0.0000    0.0000 C   0  0  0  0  0  0  0  0  0  0  0  0
    0.0000    0.0000    0.0000 C   0  0  0  0  0  0  0  0  0  0  0  0
    0.0000    0.0000    0.0000 C   0  0  0  0  0  0  0  0  0  0  0  0
    0.0000    0.0000    0.0000 O   0  0  0  0  0  0  0  0  0  0  0  0
    0.0000    0.0000    0.0000 C   0  0  0  0  0  0  0  0  0  0  0  0
    0.0000    0.0000    0.0000 C   0  0  0  0  0  0  0  0  0  0  0  0
    0.0000    0.0000    0.0000 C   0  0  0  0  0  0  0  0  0  0  0  0
    0.0000    0.0000    0.0000 C   0  0  0  0  0  0  0  0  0  0  0  0
    0.0000    0.0000    0.0000 O   0  0  0  0  0  0  0  0  0  0  0  0
    0.0000    0.0000    0.0000 O   0  0  0  0  0  0  0  0  0  0  0  0
    0.0000    0.0000    0.0000 N   0  0  0  0  0  0  0  0  0  0  0  0
    0.0000    0.0000    0.0000 C   0  0  0  0  0  0  0  0  0  0  0  0
    0.0000    0.0000    0.0000 O   0  0  0  0  0  0  0  0  0  0  0  0
    0.0000    0.0000    0.0000 C   0  0  0  0  0  0  0  0  0  0  0  0
    0.0000    0.0000    0.0000 C   0  0  0  0  0  0  0  0  0  0  0  0
    0.0000    0.0000    0.0000 C   0  0  0  0  0  0  0  0  0  0  0  0
    0.0000    0.0000    0.0000 C   0  0  0  0  0  0  0  0  0  0  0  0
    0.0000    0.0000    0.0000 C   0  0  0  0  0  0  0  0  0  0  0  0
    0.0000    0.0000    0.0000 C   0  0  0  0  0  0  0  0  0  0  0  0
    0.0000    0.0000    0.0000 O   0  0  0  0  0  0  0  0  0  0  0  0
    0.0000    0.0000    0.0000 P   0  0  0  0  0  0  0  0  0  0  0  0
    0.0000    0.0000    0.0000 O   0  0  0  0  0  0  0  0  0  0  0  0
    0.0000    0.0000    0.0000 O   0  0  0  0  0  0  0  0  0  0  0  0
    0.0000    0.0000    0.0000 O   0  0  0  0  0  0  0  0  0  0  0  0
    0.0000    0.0000    0.0000 C   0  0  0  0  0  0  0  0  0  0  0  0
    0.0000    0.0000    0.0000 C   0  0  0  0  0  0  0  0  0  0  0  0
    0.0000    0.0000    0.0000 N   0  0  0  0  0  0  0  0  0  0  0  0
    0.0000    0.0000    0.0000 C   0  0  0  0  0  0  0  0  0  0  0  0
    0.0000    0.0000    0.0000 O   0  0  0  0  0  0  0  0  0  0  0  0
    0.0000    0.0000    0.0000 C   0  0  0  0  0  0  0  0  0  0  0  0
  1  2  1  0
  2  3  1  0
  3  4  1  0
  4  5  1  0
  5  6  1  0
  6  7  1  0
  7  8  1  0
  8  9  1  0
  9 10  1  0
 10 11  1  0
  2 12  1  0
 12 13  2  0
 12 14  1  0
 14 15  1  0
 15 16  1  0
 16 17  1  0
 17 18  2  0
 17 19  1  0
 14 20  1  0
 20 21  1  0
 21 22  2  0
 21 23  1  0
 23 24  1  0
 24 25  1  0
 25 26  2  0
 26 27  1  0
 27 28  2  0
 28 29  1  0
 29 30  1  0
 30 31  2  0
 30 32  1  0
 30 33  1  0
 28 34  1  0
 34 35  2  0
 23 36  1  0
 36 37  1  0
 37 38  2  0
 37 39  1  0
 11  6  1  0
 35 25  1  0
M  END
>  <pIC50>  (1) 
5.1

>  <ChEMBL_ID>  (1) 
CHEMBL13462

>  <document_journal>  (1) 
Bioorg. Med. Chem. Lett.

>  <bao_endpoint>  (1) 
BAO_0000190

>  <potential_duplicate>  (1) 
False

>  <uo_units>  (1) 
UO_0000065

>  <canonical_smiles>  (1) 
CN(CCCC1CCCCC1)C(=O)[C@H](CCC(=O)O)NC(=O)[C@H](Cc2ccc(OP(=O)(O)O)cc2)NC(=O)C

>  <parent_molecule_chembl_id>  (1) 
CHEMBL13462

>  <assay_type>  (1) 
B

>  <src_id>  (1) 
1

>  <ligand_efficiency>  (1) 
{u'le': u'0.19', u'bei': u'9.48', u'sei': u'2.81', u'lle': u'2.94'}

>  <standard_flag>  (1) 
True

>  <molecule_chembl_id>  (1) 
CHEMBL13462

>  <target_organism>  (1) 
Homo sapiens

>  <standard_units>  (1) 
nM

>  <record_id>  (1) 
97213

>  <document_chembl_id>  (1) 
CHEMBL1130490

>  <bao_format>  (1) 
BAO_0000357

>  <data_validity_description>  (1) 
None

>  <activity_id>  (1) 
146141

>  <standard_type>  (1) 
IC50

>  <target_chembl_id>  (1) 
CHEMBL1862

>  <data_validity_comment>  (1) 
None

>  <published_value>  (1) 
4

>  <document_year>  (1) 
1997

>  <target_pref_name>  (1) 
Tyrosine-protein kinase ABL

>  <assay_chembl_id>  (1) 
CHEMBL806527

>  <standard_relation>  (1) 
=

>  <assay_description>  (1) 
Radioligand displacement assay for the binding of [125I]Glu-Pro-Gln-pTyr-Glu-Glu-Ile-Pro-Ile-Tyr-Leu to ABL SH2 domain

>  <published_relation>  (1) 
=

>  <standard_value>  (1) 
4000

>  <qudt_units>  (1) 
http://www.openphacts.org/units/Nanomolar

>  <target_tax_id>  (1) 
9606

>  <bao_label>  (1) 
single protein format

>  <published_units>  (1) 
uM

>  <pchembl_value>  (1) 
5.4

>  <published_type>  (1) 
IC50

>  <activity_comment>  (1) 
None

$$$$

     RDKit          

103106  0  0  0  0  0  0  0  0999 V2000
    0.0000    0.0000    0.0000 C   0  0  0  0  0  0  0  0  0  0  0  0
    0.0000    0.0000    0.0000 C   0  0  0  0  0  0  0  0  0  0  0  0
    0.0000    0.0000    0.0000 C   0  0  0  0  0  0  0  0  0  0  0  0
    0.0000    0.0000    0.0000 C   0  0  0  0  0  0  0  0  0  0  0  0
    0.0000    0.0000    0.0000 C   0  0  0  0  0  0  0  0  0  0  0  0
    0.0000    0.0000    0.0000 N   0  0  0  0  0  0  0  0  0  0  0  0
    0.0000    0.0000    0.0000 C   0  0  0  0  0  0  0  0  0  0  0  0
    0.0000    0.0000    0.0000 O   0  0  0  0  0  0  0  0  0  0  0  0
    0.0000    0.0000    0.0000 C   0  0  0  0  0  0  0  0  0  0  0  0
    0.0000    0.0000    0.0000 C   0  0  0  0  0  0  0  0  0  0  0  0
    0.0000    0.0000    0.0000 C   0  0  0  0  0  0  0  0  0  0  0  0
    0.0000    0.0000    0.0000 C   0  0  0  0  0  0  0  0  0  0  0  0
    0.0000    0.0000    0.0000 N   0  0  0  0  0  0  0  0  0  0  0  0
    0.0000    0.0000    0.0000 C   0  0  0  0  0  0  0  0  0  0  0  0
    0.0000    0.0000    0.0000 O   0  0  0  0  0  0  0  0  0  0  0  0
    0.0000    0.0000    0.0000 C   0  0  0  0  0  0  0  0  0  0  0  0
    0.0000    0.0000    0.0000 N   0  0  0  0  0  0  0  0  0  0  0  0
    0.0000    0.0000    0.0000 C   0  0  0  0  0  0  0  0  0  0  0  0
    0.0000    0.0000    0.0000 O   0  0  0  0  0  0  0  0  0  0  0  0
    0.0000    0.0000    0.0000 C   0  0  0  0  0  0  0  0  0  0  0  0
    0.0000    0.0000    0.0000 C   0  0  0  0  0  0  0  0  0  0  0  0
    0.0000    0.0000    0.0000 C   0  0  0  0  0  0  0  0  0  0  0  0
    0.0000    0.0000    0.0000 C   0  0  0  0  0  0  0  0  0  0  0  0
    0.0000    0.0000    0.0000 O   0  0  0  0  0  0  0  0  0  0  0  0
    0.0000    0.0000    0.0000 O   0  0  0  0  0  0  0  0  0  0  0  0
    0.0000    0.0000    0.0000 N   0  0  0  0  0  0  0  0  0  0  0  0
    0.0000    0.0000    0.0000 C   0  0  0  0  0  0  0  0  0  0  0  0
    0.0000    0.0000    0.0000 O   0  0  0  0  0  0  0  0  0  0  0  0
    0.0000    0.0000    0.0000 C   0  0  0  0  0  0  0  0  0  0  0  0
    0.0000    0.0000    0.0000 C   0  0  0  0  0  0  0  0  0  0  0  0
    0.0000    0.0000    0.0000 C   0  0  0  0  0  0  0  0  0  0  0  0
    0.0000    0.0000    0.0000 C   0  0  0  0  0  0  0  0  0  0  0  0
    0.0000    0.0000    0.0000 O   0  0  0  0  0  0  0  0  0  0  0  0
    0.0000    0.0000    0.0000 O   0  0  0  0  0  0  0  0  0  0  0  0
    0.0000    0.0000    0.0000 N   0  0  0  0  0  0  0  0  0  0  0  0
    0.0000    0.0000    0.0000 C   0  0  0  0  0  0  0  0  0  0  0  0
    0.0000    0.0000    0.0000 O   0  0  0  0  0  0  0  0  0  0  0  0
    0.0000    0.0000    0.0000 C   0  0  0  0  0  0  0  0  0  0  0  0
    0.0000    0.0000    0.0000 C   0  0  0  0  0  0  0  0  0  0  0  0
    0.0000    0.0000    0.0000 C   0  0  0  0  0  0  0  0  0  0  0  0
    0.0000    0.0000    0.0000 C   0  0  0  0  0  0  0  0  0  0  0  0
    0.0000    0.0000    0.0000 C   0  0  0  0  0  0  0  0  0  0  0  0
    0.0000    0.0000    0.0000 C   0  0  0  0  0  0  0  0  0  0  0  0
    0.0000    0.0000    0.0000 O   0  0  0  0  0  0  0  0  0  0  0  0
    0.0000    0.0000    0.0000 P   0  0  0  0  0  0  0  0  0  0  0  0
    0.0000    0.0000    0.0000 O   0  0  0  0  0  0  0  0  0  0  0  0
    0.0000    0.0000    0.0000 O   0  0  0  0  0  0  0  0  0  0  0  0
    0.0000    0.0000    0.0000 O   0  0  0  0  0  0  0  0  0  0  0  0
    0.0000    0.0000    0.0000 C   0  0  0  0  0  0  0  0  0  0  0  0
    0.0000    0.0000    0.0000 C   0  0  0  0  0  0  0  0  0  0  0  0
    0.0000    0.0000    0.0000 N   0  0  0  0  0  0  0  0  0  0  0  0
    0.0000    0.0000    0.0000 C   0  0  0  0  0  0  0  0  0  0  0  0
    0.0000    0.0000    0.0000 O   0  0  0  0  0  0  0  0  0  0  0  0
    0.0000    0.0000    0.0000 C   0  0  0  0  0  0  0  0  0  0  0  0
    0.0000    0.0000    0.0000 C   0  0  0  0  0  0  0  0  0  0  0  0
    0.0000    0.0000    0.0000 C   0  0  0  0  0  0  0  0  0  0  0  0
    0.0000    0.0000    0.0000 C   0  0  0  0  0  0  0  0  0  0  0  0
    0.0000    0.0000    0.0000 O   0  0  0  0  0  0  0  0  0  0  0  0
    0.0000    0.0000    0.0000 N   0  0  0  0  0  0  0  0  0  0  0  0
    0.0000    0.0000    0.0000 N   0  0  0  0  0  0  0  0  0  0  0  0
    0.0000    0.0000    0.0000 C   0  0  0  0  0  0  0  0  0  0  0  0
    0.0000    0.0000    0.0000 O   0  0  0  0  0  0  0  0  0  0  0  0
    0.0000    0.0000    0.0000 C   0  0  0  0  0  0  0  0  0  0  0  0
    0.0000    0.0000    0.0000 C   0  0  0  0  0  0  0  0  0  0  0  0
    0.0000    0.0000    0.0000 C   0  0  0  0  0  0  0  0  0  0  0  0
    0.0000    0.0000    0.0000 C   0  0  0  0  0  0  0  0  0  0  0  0
    0.0000    0.0000    0.0000 N   0  0  0  0  0  0  0  0  0  0  0  0
    0.0000    0.0000    0.0000 C   0  0  0  0  0  0  0  0  0  0  0  0
    0.0000    0.0000    0.0000 O   0  0  0  0  0  0  0  0  0  0  0  0
    0.0000    0.0000    0.0000 C   0  0  0  0  0  0  0  0  0  0  0  0
    0.0000    0.0000    0.0000 N   0  0  0  0  0  0  0  0  0  0  0  0
    0.0000    0.0000    0.0000 C   0  0  0  0  0  0  0  0  0  0  0  0
    0.0000    0.0000    0.0000 C   0  0  0  0  0  0  0  0  0  0  0  0
    0.0000    0.0000    0.0000 C   0  0  0  0  0  0  0  0  0  0  0  0
    0.0000    0.0000    0.0000 O   0  0  0  0  0  0  0  0  0  0  0  0
    0.0000    0.0000    0.0000 O   0  0  0  0  0  0  0  0  0  0  0  0
    0.0000    0.0000    0.0000 C   0  0  0  0  0  0  0  0  0  0  0  0
    0.0000    0.0000    0.0000 C   0  0  0  0  0  0  0  0  0  0  0  0
    0.0000    0.0000    0.0000 C   0  0  0  0  0  0  0  0  0  0  0  0
    0.0000    0.0000    0.0000 C   0  0  0  0  0  0  0  0  0  0  0  0
    0.0000    0.0000    0.0000 C   0  0  0  0  0  0  0  0  0  0  0  0
    0.0000    0.0000    0.0000 O   0  0  0  0  0  0  0  0  0  0  0  0
    0.0000    0.0000    0.0000 N   0  0  0  0  0  0  0  0  0  0  0  0
    0.0000    0.0000    0.0000 C   0  0  0  0  0  0  0  0  0  0  0  0
    0.0000    0.0000    0.0000 C   0  0  0  0  0  0  0  0  0  0  0  0
    0.0000    0.0000    0.0000 C   0  0  0  0  0  0  0  0  0  0  0  0
    0.0000    0.0000    0.0000 C   0  0  0  0  0  0  0  0  0  0  0  0
    0.0000    0.0000    0.0000 C   0  0  0  0  0  0  0  0  0  0  0  0
    0.0000    0.0000    0.0000 C   0  0  0  0  0  0  0  0  0  0  0  0
    0.0000    0.0000    0.0000 O   0  0  0  0  0  0  0  0  0  0  0  0
    0.0000    0.0000    0.0000 C   0  0  0  0  0  0  0  0  0  0  0  0
    0.0000    0.0000    0.0000 C   0  0  0  0  0  0  0  0  0  0  0  0
    0.0000    0.0000    0.0000 C   0  0  0  0  0  0  0  0  0  0  0  0
    0.0000    0.0000    0.0000 O   0  0  0  0  0  0  0  0  0  0  0  0
    0.0000    0.0000    0.0000 N   0  0  0  0  0  0  0  0  0  0  0  0
    0.0000    0.0000    0.0000 C   0  0  0  0  0  0  0  0  0  0  0  0
    0.0000    0.0000    0.0000 C   0  0  0  0  0  0  0  0  0  0  0  0
    0.0000    0.0000    0.0000 C   0  0  0  0  0  0  0  0  0  0  0  0
    0.0000    0.0000    0.0000 C   0  0  0  0  0  0  0  0  0  0  0  0
    0.0000    0.0000    0.0000 C   0  0  0  0  0  0  0  0  0  0  0  0
    0.0000    0.0000    0.0000 C   0  0  0  0  0  0  0  0  0  0  0  0
    0.0000    0.0000    0.0000 O   0  0  0  0  0  0  0  0  0  0  0  0
    0.0000    0.0000    0.0000 O   0  0  0  0  0  0  0  0  0  0  0  0
  1  2  1  0
  2  3  1  0
  3  4  1  0
  3  5  1  0
  5  6  1  0
  6  7  1  0
  7  8  2  0
  7  9  1  0
  9 10  1  0
 10 11  1  0
 11 12  1  0
 12 13  1  0
 13 14  1  0
 14 15  2  0
 14 16  1  0
 16 17  1  0
 17 18  1  0
 18 19  2  0
 18 20  1  0
 20 21  1  0
 21 22  1  0
 22 23  1  0
 23 24  2  0
 23 25  1  0
 20 26  1  0
 26 27  1  0
 27 28  2  0
 27 29  1  0
 29 30  1  0
 30 31  1  0
 31 32  1  0
 32 33  2  0
 32 34  1  0
 29 35  1  0
 35 36  1  0
 36 37  2  0
 36 38  1  0
 38 39  1  0
 39 40  1  0
 40 41  2  0
 41 42  1  0
 42 43  2  0
 43 44  1  0
 44 45  1  0
 45 46  2  0
 45 47  1  0
 45 48  1  0
 43 49  1  0
 49 50  2  0
 38 51  1  0
 51 52  1  0
 52 53  2  0
 52 54  1  0
 54 55  1  0
 55 56  1  0
 56 57  1  0
 57 58  2  0
 57 59  1  0
 54 60  1  0
 60 61  1  0
 61 62  2  0
 61 63  1  0
 63 64  1  0
 64 65  1  0
 65 66  1  0
 66 67  1  0
 67 68  1  0
 68 69  2  0
 68 70  1  0
 70 71  1  0
 70 72  1  0
 72 73  1  0
 73 74  1  0
 74 75  2  0
 74 76  1  0
 16 77  1  0
 77 78  1  0
 77 79  1  0
 79 80  1  0
  5 81  1  0
 81 82  2  0
 81 83  1  0
 83 84  1  0
 84 85  1  0
 85 86  1  0
 86 87  2  0
 87 88  1  0
 88 89  2  0
 89 90  1  0
 89 91  1  0
 91 92  2  0
 84 93  1  0
 93 94  2  0
 93 95  1  0
 95 96  1  0
 96 97  1  0
 97 98  1  0
 98 99  1  0
 98100  1  0
 96101  1  0
101102  2  0
101103  1  0
 13  9  1  0
 50 40  1  0
 67 63  1  0
 92 86  1  0
M  END
>  <pIC50>  (2) 
5.18

>  <ChEMBL_ID>  (2) 
CHEMBL414123

>  <document_journal>  (2) 
Bioorg. Med. Chem. Lett.

>  <bao_endpoint>  (2) 
BAO_0000190

>  <potential_duplicate>  (2) 
False

>  <uo_units>  (2) 
UO_0000065

>  <canonical_smiles>  (2) 
CC[C@H](C)[C@H](NC(=O)[C@@H]1CCCN1C(=O)[C@@H](NC(=O)[C@H](CCC(=O)O)NC(=O)[C@H](CCC(=O)O)NC(=O)[C@H](Cc2ccc(OP(=O)(O)O)cc2)NC(=O)[C@H](CCC(=O)N)NC(=O)[C@@H]3CCCN3C(=O)[C@@H](N)CCC(=O)O)[C@@H](C)CC)C(=O)N[C@@H](Cc4ccc(O)cc4)C(=O)N[C@@H](CC(C)C)C(=O)O

>  <parent_molecule_chembl_id>  (2) 
CHEMBL414123

>  <assay_type>  (2) 
B

>  <src_id>  (2) 
1

>  <ligand_efficiency>  (2) 
{u'le': None, u'bei': u'3.27', u'sei': None, u'lle': None}

>  <standard_flag>  (2) 
True

>  <molecule_chembl_id>  (2) 
CHEMBL414123

>  <target_organism>  (2) 
Homo sapiens

>  <standard_units>  (2) 
nM

>  <record_id>  (2) 
97211

>  <document_chembl_id>  (2) 
CHEMBL1130490

>  <bao_format>  (2) 
BAO_0000357

>  <data_validity_description>  (2) 
None

>  <activity_id>  (2) 
148569

>  <standard_type>  (2) 
IC50

>  <target_chembl_id>  (2) 
CHEMBL1862

>  <data_validity_comment>  (2) 
None

>  <published_value>  (2) 
15

>  <document_year>  (2) 
1997

>  <target_pref_name>  (2) 
Tyrosine-protein kinase ABL

>  <assay_chembl_id>  (2) 
CHEMBL806527

>  <standard_relation>  (2) 
=

>  <assay_description>  (2) 
Radioligand displacement assay for the binding of [125I]Glu-Pro-Gln-pTyr-Glu-Glu-Ile-Pro-Ile-Tyr-Leu to ABL SH2 domain

>  <published_relation>  (2) 
=

>  <standard_value>  (2) 
15000

>  <qudt_units>  (2) 
http://www.openphacts.org/units/Nanomolar

>  <target_tax_id>  (2) 
9606

>  <bao_label>  (2) 
single protein format

>  <published_units>  (2) 
uM

>  <pchembl_value>  (2) 
4.82

>  <published_type>  (2) 
IC50

>  <activity_comment>  (2) 
None

$$$$

     RDKit          

105108  0  0  0  0  0  0  0  0999 V2000
    0.0000    0.0000    0.0000 C   0  0  0  0  0  0  0  0  0  0  0  0
    0.0000    0.0000    0.0000 C   0  0  0  0  0  0  0  0  0  0  0  0
    0.0000    0.0000    0.0000 C   0  0  0  0  0  0  0  0  0  0  0  0
    0.0000    0.0000    0.0000 C   0  0  0  0  0  0  0  0  0  0  0  0
    0.0000    0.0000    0.0000 C   0  0  0  0  0  0  0  0  0  0  0  0
    0.0000    0.0000    0.0000 N   0  0  0  0  0  0  0  0  0  0  0  0
    0.0000    0.0000    0.0000 C   0  0  0  0  0  0  0  0  0  0  0  0
    0.0000    0.0000    0.0000 O   0  0  0  0  0  0  0  0  0  0  0  0
    0.0000    0.0000    0.0000 C   0  0  0  0  0  0  0  0  0  0  0  0
    0.0000    0.0000    0.0000 C   0  0  0  0  0  0  0  0  0  0  0  0
    0.0000    0.0000    0.0000 C   0  0  0  0  0  0  0  0  0  0  0  0
    0.0000    0.0000    0.0000 C   0  0  0  0  0  0  0  0  0  0  0  0
    0.0000    0.0000    0.0000 N   0  0  0  0  0  0  0  0  0  0  0  0
    0.0000    0.0000    0.0000 C   0  0  0  0  0  0  0  0  0  0  0  0
    0.0000    0.0000    0.0000 O   0  0  0  0  0  0  0  0  0  0  0  0
    0.0000    0.0000    0.0000 C   0  0  0  0  0  0  0  0  0  0  0  0
    0.0000    0.0000    0.0000 N   0  0  0  0  0  0  0  0  0  0  0  0
    0.0000    0.0000    0.0000 C   0  0  0  0  0  0  0  0  0  0  0  0
    0.0000    0.0000    0.0000 O   0  0  0  0  0  0  0  0  0  0  0  0
    0.0000    0.0000    0.0000 C   0  0  0  0  0  0  0  0  0  0  0  0
    0.0000    0.0000    0.0000 C   0  0  0  0  0  0  0  0  0  0  0  0
    0.0000    0.0000    0.0000 C   0  0  0  0  0  0  0  0  0  0  0  0
    0.0000    0.0000    0.0000 C   0  0  0  0  0  0  0  0  0  0  0  0
    0.0000    0.0000    0.0000 O   0  0  0  0  0  0  0  0  0  0  0  0
    0.0000    0.0000    0.0000 O   0  0  0  0  0  0  0  0  0  0  0  0
    0.0000    0.0000    0.0000 N   0  0  0  0  0  0  0  0  0  0  0  0
    0.0000    0.0000    0.0000 C   0  0  0  0  0  0  0  0  0  0  0  0
    0.0000    0.0000    0.0000 O   0  0  0  0  0  0  0  0  0  0  0  0
    0.0000    0.0000    0.0000 C   0  0  0  0  0  0  0  0  0  0  0  0
    0.0000    0.0000    0.0000 C   0  0  0  0  0  0  0  0  0  0  0  0
    0.0000    0.0000    0.0000 C   0  0  0  0  0  0  0  0  0  0  0  0
    0.0000    0.0000    0.0000 C   0  0  0  0  0  0  0  0  0  0  0  0
    0.0000    0.0000    0.0000 O   0  0  0  0  0  0  0  0  0  0  0  0
    0.0000    0.0000    0.0000 O   0  0  0  0  0  0  0  0  0  0  0  0
    0.0000    0.0000    0.0000 N   0  0  0  0  0  0  0  0  0  0  0  0
    0.0000    0.0000    0.0000 C   0  0  0  0  0  0  0  0  0  0  0  0
    0.0000    0.0000    0.0000 O   0  0  0  0  0  0  0  0  0  0  0  0
    0.0000    0.0000    0.0000 C   0  0  0  0  0  0  0  0  0  0  0  0
    0.0000    0.0000    0.0000 C   0  0  0  0  0  0  0  0  0  0  0  0
    0.0000    0.0000    0.0000 C   0  0  0  0  0  0  0  0  0  0  0  0
    0.0000    0.0000    0.0000 C   0  0  0  0  0  0  0  0  0  0  0  0
    0.0000    0.0000    0.0000 C   0  0  0  0  0  0  0  0  0  0  0  0
    0.0000    0.0000    0.0000 C   0  0  0  0  0  0  0  0  0  0  0  0
    0.0000    0.0000    0.0000 C   0  0  0  0  0  0  0  0  0  0  0  0
    0.0000    0.0000    0.0000 C   0  0  0  0  0  0  0  0  0  0  0  0
    0.0000    0.0000    0.0000 C   0  0  0  0  0  0  0  0  0  0  0  0
    0.0000    0.0000    0.0000 F   0  0  0  0  0  0  0  0  0  0  0  0
    0.0000    0.0000    0.0000 F   0  0  0  0  0  0  0  0  0  0  0  0
    0.0000    0.0000    0.0000 P   0  0  0  0  0  0  0  0  0  0  0  0
    0.0000    0.0000    0.0000 O   0  0  0  0  0  0  0  0  0  0  0  0
    0.0000    0.0000    0.0000 O   0  0  0  0  0  0  0  0  0  0  0  0
    0.0000    0.0000    0.0000 O   0  0  0  0  0  0  0  0  0  0  0  0
    0.0000    0.0000    0.0000 N   0  0  0  0  0  0  0  0  0  0  0  0
    0.0000    0.0000    0.0000 C   0  0  0  0  0  0  0  0  0  0  0  0
    0.0000    0.0000    0.0000 O   0  0  0  0  0  0  0  0  0  0  0  0
    0.0000    0.0000    0.0000 C   0  0  0  0  0  0  0  0  0  0  0  0
    0.0000    0.0000    0.0000 C   0  0  0  0  0  0  0  0  0  0  0  0
    0.0000    0.0000    0.0000 C   0  0  0  0  0  0  0  0  0  0  0  0
    0.0000    0.0000    0.0000 C   0  0  0  0  0  0  0  0  0  0  0  0
    0.0000    0.0000    0.0000 O   0  0  0  0  0  0  0  0  0  0  0  0
    0.0000    0.0000    0.0000 N   0  0  0  0  0  0  0  0  0  0  0  0
    0.0000    0.0000    0.0000 N   0  0  0  0  0  0  0  0  0  0  0  0
    0.0000    0.0000    0.0000 C   0  0  0  0  0  0  0  0  0  0  0  0
    0.0000    0.0000    0.0000 O   0  0  0  0  0  0  0  0  0  0  0  0
    0.0000    0.0000    0.0000 C   0  0  0  0  0  0  0  0  0  0  0  0
    0.0000    0.0000    0.0000 C   0  0  0  0  0  0  0  0  0  0  0  0
    0.0000    0.0000    0.0000 C   0  0  0  0  0  0  0  0  0  0  0  0
    0.0000    0.0000    0.0000 C   0  0  0  0  0  0  0  0  0  0  0  0
    0.0000    0.0000    0.0000 N   0  0  0  0  0  0  0  0  0  0  0  0
    0.0000    0.0000    0.0000 C   0  0  0  0  0  0  0  0  0  0  0  0
    0.0000    0.0000    0.0000 O   0  0  0  0  0  0  0  0  0  0  0  0
    0.0000    0.0000    0.0000 C   0  0  0  0  0  0  0  0  0  0  0  0
    0.0000    0.0000    0.0000 N   0  0  0  0  0  0  0  0  0  0  0  0
    0.0000    0.0000    0.0000 C   0  0  0  0  0  0  0  0  0  0  0  0
    0.0000    0.0000    0.0000 C   0  0  0  0  0  0  0  0  0  0  0  0
    0.0000    0.0000    0.0000 C   0  0  0  0  0  0  0  0  0  0  0  0
    0.0000    0.0000    0.0000 O   0  0  0  0  0  0  0  0  0  0  0  0
    0.0000    0.0000    0.0000 O   0  0  0  0  0  0  0  0  0  0  0  0
    0.0000    0.0000    0.0000 C   0  0  0  0  0  0  0  0  0  0  0  0
    0.0000    0.0000    0.0000 C   0  0  0  0  0  0  0  0  0  0  0  0
    0.0000    0.0000    0.0000 C   0  0  0  0  0  0  0  0  0  0  0  0
    0.0000    0.0000    0.0000 C   0  0  0  0  0  0  0  0  0  0  0  0
    0.0000    0.0000    0.0000 C   0  0  0  0  0  0  0  0  0  0  0  0
    0.0000    0.0000    0.0000 O   0  0  0  0  0  0  0  0  0  0  0  0
    0.0000    0.0000    0.0000 N   0  0  0  0  0  0  0  0  0  0  0  0
    0.0000    0.0000    0.0000 C   0  0  0  0  0  0  0  0  0  0  0  0
    0.0000    0.0000    0.0000 C   0  0  0  0  0  0  0  0  0  0  0  0
    0.0000    0.0000    0.0000 C   0  0  0  0  0  0  0  0  0  0  0  0
    0.0000    0.0000    0.0000 C   0  0  0  0  0  0  0  0  0  0  0  0
    0.0000    0.0000    0.0000 C   0  0  0  0  0  0  0  0  0  0  0  0
    0.0000    0.0000    0.0000 C   0  0  0  0  0  0  0  0  0  0  0  0
    0.0000    0.0000    0.0000 O   0  0  0  0  0  0  0  0  0  0  0  0
    0.0000    0.0000    0.0000 C   0  0  0  0  0  0  0  0  0  0  0  0
    0.0000    0.0000    0.0000 C   0  0  0  0  0  0  0  0  0  0  0  0
    0.0000    0.0000    0.0000 C   0  0  0  0  0  0  0  0  0  0  0  0
    0.0000    0.0000    0.0000 O   0  0  0  0  0  0  0  0  0  0  0  0
    0.0000    0.0000    0.0000 N   0  0  0  0  0  0  0  0  0  0  0  0
    0.0000    0.0000    0.0000 C   0  0  0  0  0  0  0  0  0  0  0  0
    0.0000    0.0000    0.0000 C   0  0  0  0  0  0  0  0  0  0  0  0
    0.0000    0.0000    0.0000 C   0  0  0  0  0  0  0  0  0  0  0  0
    0.0000    0.0000    0.0000 C   0  0  0  0  0  0  0  0  0  0  0  0
    0.0000    0.0000    0.0000 C   0  0  0  0  0  0  0  0  0  0  0  0
    0.0000    0.0000    0.0000 C   0  0  0  0  0  0  0  0  0  0  0  0
    0.0000    0.0000    0.0000 O   0  0  0  0  0  0  0  0  0  0  0  0
    0.0000    0.0000    0.0000 O   0  0  0  0  0  0  0  0  0  0  0  0
  1  2  1  0
  2  3  1  0
  3  4  1  0
  3  5  1  0
  5  6  1  0
  6  7  1  0
  7  8  2  0
  7  9  1  0
  9 10  1  0
 10 11  1  0
 11 12  1  0
 12 13  1  0
 13 14  1  0
 14 15  2  0
 14 16  1  0
 16 17  1  0
 17 18  1  0
 18 19  2  0
 18 20  1  0
 20 21  1  0
 21 22  1  0
 22 23  1  0
 23 24  2  0
 23 25  1  0
 20 26  1  0
 26 27  1  0
 27 28  2  0
 27 29  1  0
 29 30  1  0
 30 31  1  0
 31 32  1  0
 32 33  2  0
 32 34  1  0
 29 35  1  0
 35 36  1  0
 36 37  2  0
 36 38  1  0
 38 39  1  0
 39 40  1  0
 40 41  2  0
 41 42  1  0
 42 43  2  0
 43 44  1  0
 44 45  2  0
 43 46  1  0
 46 47  1  0
 46 48  1  0
 46 49  1  0
 49 50  2  0
 49 51  1  0
 49 52  1  0
 38 53  1  0
 53 54  1  0
 54 55  2  0
 54 56  1  0
 56 57  1  0
 57 58  1  0
 58 59  1  0
 59 60  2  0
 59 61  1  0
 56 62  1  0
 62 63  1  0
 63 64  2  0
 63 65  1  0
 65 66  1  0
 66 67  1  0
 67 68  1  0
 68 69  1  0
 69 70  1  0
 70 71  2  0
 70 72  1  0
 72 73  1  0
 72 74  1  0
 74 75  1  0
 75 76  1  0
 76 77  2  0
 76 78  1  0
 16 79  1  0
 79 80  1  0
 79 81  1  0
 81 82  1  0
  5 83  1  0
 83 84  2  0
 83 85  1  0
 85 86  1  0
 86 87  1  0
 87 88  1  0
 88 89  2  0
 89 90  1  0
 90 91  2  0
 91 92  1  0
 91 93  1  0
 93 94  2  0
 86 95  1  0
 95 96  2  0
 95 97  1  0
 97 98  1  0
 98 99  1  0
 99100  1  0
100101  1  0
100102  1  0
 98103  1  0
103104  2  0
103105  1  0
 13  9  1  0
 45 40  1  0
 69 65  1  0
 94 88  1  0
M  END
>  <pIC50>  (3) 
5.31

>  <ChEMBL_ID>  (3) 
CHEMBL413629

>  <document_journal>  (3) 
Bioorg. Med. Chem. Lett.

>  <bao_endpoint>  (3) 
BAO_0000190

>  <potential_duplicate>  (3) 
False

>  <uo_units>  (3) 
UO_0000065

>  <canonical_smiles>  (3) 
CC[C@H](C)[C@H](NC(=O)[C@@H]1CCCN1C(=O)[C@@H](NC(=O)[C@H](CCC(=O)O)NC(=O)[C@H](CCC(=O)O)NC(=O)[C@H](Cc2ccc(cc2)C(F)(F)P(=O)(O)O)NC(=O)[C@H](CCC(=O)N)NC(=O)[C@@H]3CCCN3C(=O)[C@@H](N)CCC(=O)O)[C@@H](C)CC)C(=O)N[C@@H](Cc4ccc(O)cc4)C(=O)N[C@@H](CC(C)C)C(=O)O

>  <parent_molecule_chembl_id>  (3) 
CHEMBL413629

>  <assay_type>  (3) 
B

>  <src_id>  (3) 
1

>  <ligand_efficiency>  (3) 
{u'le': None, u'bei': u'3.81', u'sei': None, u'lle': None}

>  <standard_flag>  (3) 
True

>  <molecule_chembl_id>  (3) 
CHEMBL413629

>  <target_organism>  (3) 
Homo sapiens

>  <standard_units>  (3) 
nM

>  <record_id>  (3) 
97226

>  <document_chembl_id>  (3) 
CHEMBL1130490

>  <bao_format>  (3) 
BAO_0000357

>  <data_validity_description>  (3) 
None

>  <activity_id>  (3) 
152122

>  <standard_type>  (3) 
IC50

>  <target_chembl_id>  (3) 
CHEMBL1862

>  <data_validity_comment>  (3) 
None

>  <published_value>  (3) 
1.8

>  <document_year>  (3) 
1997

>  <target_pref_name>  (3) 
Tyrosine-protein kinase ABL

>  <assay_chembl_id>  (3) 
CHEMBL806527

>  <standard_relation>  (3) 
=

>  <assay_description>  (3) 
Radioligand displacement assay for the binding of [125I]Glu-Pro-Gln-pTyr-Glu-Glu-Ile-Pro-Ile-Tyr-Leu to ABL SH2 domain

>  <published_relation>  (3) 
=

>  <standard_value>  (3) 
1800

>  <qudt_units>  (3) 
http://www.openphacts.org/units/Nanomolar

>  <target_tax_id>  (3) 
9606

>  <bao_label>  (3) 
single protein format

>  <published_units>  (3) 
uM

>  <pchembl_value>  (3) 
5.75

>  <published_type>  (3) 
IC50

>  <activity_comment>  (3) 
None

$$$$

     RDKit          

 36 37  0  0  0  0  0  0  0  0999 V2000
    0.0000    0.0000    0.0000 C   0  0  0  0  0  0  0  0  0  0  0  0
    0.0000    0.0000    0.0000 C   0  0  0  0  0  0  0  0  0  0  0  0
    0.0000    0.0000    0.0000 C   0  0  0  0  0  0  0  0  0  0  0  0
    0.0000    0.0000    0.0000 N   0  0  0  0  0  0  0  0  0  0  0  0
    0.0000    0.0000    0.0000 C   0  0  0  0  0  0  0  0  0  0  0  0
    0.0000    0.0000    0.0000 O   0  0  0  0  0  0  0  0  0  0  0  0
    0.0000    0.0000    0.0000 C   0  0  0  0  0  0  0  0  0  0  0  0
    0.0000    0.0000    0.0000 C   0  0  0  0  0  0  0  0  0  0  0  0
    0.0000    0.0000    0.0000 C   0  0  0  0  0  0  0  0  0  0  0  0
    0.0000    0.0000    0.0000 C   0  0  0  0  0  0  0  0  0  0  0  0
    0.0000    0.0000    0.0000 C   0  0  0  0  0  0  0  0  0  0  0  0
    0.0000    0.0000    0.0000 C   0  0  0  0  0  0  0  0  0  0  0  0
    0.0000    0.0000    0.0000 O   0  0  0  0  0  0  0  0  0  0  0  0
    0.0000    0.0000    0.0000 P   0  0  0  0  0  0  0  0  0  0  0  0
    0.0000    0.0000    0.0000 O   0  0  0  0  0  0  0  0  0  0  0  0
    0.0000    0.0000    0.0000 O   0  0  0  0  0  0  0  0  0  0  0  0
    0.0000    0.0000    0.0000 O   0  0  0  0  0  0  0  0  0  0  0  0
    0.0000    0.0000    0.0000 C   0  0  0  0  0  0  0  0  0  0  0  0
    0.0000    0.0000    0.0000 C   0  0  0  0  0  0  0  0  0  0  0  0
    0.0000    0.0000    0.0000 N   0  0  0  0  0  0  0  0  0  0  0  0
    0.0000    0.0000    0.0000 C   0  0  0  0  0  0  0  0  0  0  0  0
    0.0000    0.0000    0.0000 O   0  0  0  0  0  0  0  0  0  0  0  0
    0.0000    0.0000    0.0000 C   0  0  0  0  0  0  0  0  0  0  0  0
    0.0000    0.0000    0.0000 C   0  0  0  0  0  0  0  0  0  0  0  0
    0.0000    0.0000    0.0000 O   0  0  0  0  0  0  0  0  0  0  0  0
    0.0000    0.0000    0.0000 N   0  0  0  0  0  0  0  0  0  0  0  0
    0.0000    0.0000    0.0000 C   0  0  0  0  0  0  0  0  0  0  0  0
    0.0000    0.0000    0.0000 C   0  0  0  0  0  0  0  0  0  0  0  0
    0.0000    0.0000    0.0000 C   0  0  0  0  0  0  0  0  0  0  0  0
    0.0000    0.0000    0.0000 C   0  0  0  0  0  0  0  0  0  0  0  0
    0.0000    0.0000    0.0000 C   0  0  0  0  0  0  0  0  0  0  0  0
    0.0000    0.0000    0.0000 C   0  0  0  0  0  0  0  0  0  0  0  0
    0.0000    0.0000    0.0000 C   0  0  0  0  0  0  0  0  0  0  0  0
    0.0000    0.0000    0.0000 C   0  0  0  0  0  0  0  0  0  0  0  0
    0.0000    0.0000    0.0000 C   0  0  0  0  0  0  0  0  0  0  0  0
    0.0000    0.0000    0.0000 C   0  0  0  0  0  0  0  0  0  0  0  0
  1  2  1  0
  2  3  1  0
  3  4  1  0
  4  5  1  0
  5  6  2  0
  5  7  1  0
  7  8  1  0
  8  9  1  0
  9 10  2  0
 10 11  1  0
 11 12  2  0
 12 13  1  0
 13 14  1  0
 14 15  2  0
 14 16  1  0
 14 17  1  0
 12 18  1  0
 18 19  2  0
  7 20  1  0
 20 21  1  0
 21 22  2  0
 21 23  1  0
  3 24  1  0
 24 25  2  0
 24 26  1  0
 26 27  1  0
 26 28  1  0
 28 29  1  0
 29 30  1  0
 30 31  1  0
 31 32  1  0
 32 33  1  0
 33 34  1  0
 34 35  1  0
 35 36  1  0
 19  9  1  0
 36 31  1  0
M  END
>  <pIC50>  (4) 
4.41

>  <ChEMBL_ID>  (4) 
CHEMBL301845

>  <document_journal>  (4) 
Bioorg. Med. Chem. Lett.

>  <bao_endpoint>  (4) 
BAO_0000190

>  <potential_duplicate>  (4) 
False

>  <uo_units>  (4) 
UO_0000065

>  <canonical_smiles>  (4) 
CC[C@H](NC(=O)[C@H](Cc1ccc(OP(=O)(O)O)cc1)NC(=O)C)C(=O)N(C)CCCC2CCCCC2

>  <parent_molecule_chembl_id>  (4) 
CHEMBL301845

>  <assay_type>  (4) 
B

>  <src_id>  (4) 
1

>  <ligand_efficiency>  (4) 
{u'le': u'0.18', u'bei': u'9.18', u'sei': u'3.11', u'lle': u'1.54'}

>  <standard_flag>  (4) 
True

>  <molecule_chembl_id>  (4) 
CHEMBL301845

>  <target_organism>  (4) 
Homo sapiens

>  <standard_units>  (4) 
nM

>  <record_id>  (4) 
97220

>  <document_chembl_id>  (4) 
CHEMBL1130490

>  <bao_format>  (4) 
BAO_0000357

>  <data_validity_description>  (4) 
None

>  <activity_id>  (4) 
154553

>  <standard_type>  (4) 
IC50

>  <target_chembl_id>  (4) 
CHEMBL1862

>  <data_validity_comment>  (4) 
None

>  <published_value>  (4) 
15

>  <document_year>  (4) 
1997

>  <target_pref_name>  (4) 
Tyrosine-protein kinase ABL

>  <assay_chembl_id>  (4) 
CHEMBL806527

>  <standard_relation>  (4) 
=

>  <assay_description>  (4) 
Radioligand displacement assay for the binding of [125I]Glu-Pro-Gln-pTyr-Glu-Glu-Ile-Pro-Ile-Tyr-Leu to ABL SH2 domain

>  <published_relation>  (4) 
=

>  <standard_value>  (4) 
15000

>  <qudt_units>  (4) 
http://www.openphacts.org/units/Nanomolar

>  <target_tax_id>  (4) 
9606

>  <bao_label>  (4) 
single protein format

>  <published_units>  (4) 
uM

>  <pchembl_value>  (4) 
4.82

>  <published_type>  (4) 
IC50

>  <activity_comment>  (4) 
None

$$$$

     RDKit          

 41 42  0  0  0  0  0  0  0  0999 V2000
    0.0000    0.0000    0.0000 C   0  0  0  0  0  0  0  0  0  0  0  0
    0.0000    0.0000    0.0000 N   0  0  0  0  0  0  0  0  0  0  0  0
    0.0000    0.0000    0.0000 C   0  0  0  0  0  0  0  0  0  0  0  0
    0.0000    0.0000    0.0000 C   0  0  0  0  0  0  0  0  0  0  0  0
    0.0000    0.0000    0.0000 C   0  0  0  0  0  0  0  0  0  0  0  0
    0.0000    0.0000    0.0000 C   0  0  0  0  0  0  0  0  0  0  0  0
    0.0000    0.0000    0.0000 C   0  0  0  0  0  0  0  0  0  0  0  0
    0.0000    0.0000    0.0000 C   0  0  0  0  0  0  0  0  0  0  0  0
    0.0000    0.0000    0.0000 C   0  0  0  0  0  0  0  0  0  0  0  0
    0.0000    0.0000    0.0000 C   0  0  0  0  0  0  0  0  0  0  0  0
    0.0000    0.0000    0.0000 C   0  0  0  0  0  0  0  0  0  0  0  0
    0.0000    0.0000    0.0000 C   0  0  0  0  0  0  0  0  0  0  0  0
    0.0000    0.0000    0.0000 O   0  0  0  0  0  0  0  0  0  0  0  0
    0.0000    0.0000    0.0000 C   0  0  0  0  0  0  0  0  0  0  0  0
    0.0000    0.0000    0.0000 C   0  0  0  0  0  0  0  0  0  0  0  0
    0.0000    0.0000    0.0000 C   0  0  0  0  0  0  0  0  0  0  0  0
    0.0000    0.0000    0.0000 C   0  0  0  0  0  0  0  0  0  0  0  0
    0.0000    0.0000    0.0000 O   0  0  0  0  0  0  0  0  0  0  0  0
    0.0000    0.0000    0.0000 O   0  0  0  0  0  0  0  0  0  0  0  0
    0.0000    0.0000    0.0000 N   0  0  0  0  0  0  0  0  0  0  0  0
    0.0000    0.0000    0.0000 C   0  0  0  0  0  0  0  0  0  0  0  0
    0.0000    0.0000    0.0000 O   0  0  0  0  0  0  0  0  0  0  0  0
    0.0000    0.0000    0.0000 C   0  0  0  0  0  0  0  0  0  0  0  0
    0.0000    0.0000    0.0000 C   0  0  0  0  0  0  0  0  0  0  0  0
    0.0000    0.0000    0.0000 C   0  0  0  0  0  0  0  0  0  0  0  0
    0.0000    0.0000    0.0000 C   0  0  0  0  0  0  0  0  0  0  0  0
    0.0000    0.0000    0.0000 C   0  0  0  0  0  0  0  0  0  0  0  0
    0.0000    0.0000    0.0000 C   0  0  0  0  0  0  0  0  0  0  0  0
    0.0000    0.0000    0.0000 C   0  0  0  0  0  0  0  0  0  0  0  0
    0.0000    0.0000    0.0000 C   0  0  0  0  0  0  0  0  0  0  0  0
    0.0000    0.0000    0.0000 C   0  0  0  0  0  0  0  0  0  0  0  0
    0.0000    0.0000    0.0000 F   0  0  0  0  0  0  0  0  0  0  0  0
    0.0000    0.0000    0.0000 F   0  0  0  0  0  0  0  0  0  0  0  0
    0.0000    0.0000    0.0000 P   0  0  0  0  0  0  0  0  0  0  0  0
    0.0000    0.0000    0.0000 O   0  0  0  0  0  0  0  0  0  0  0  0
    0.0000    0.0000    0.0000 O   0  0  0  0  0  0  0  0  0  0  0  0
    0.0000    0.0000    0.0000 O   0  0  0  0  0  0  0  0  0  0  0  0
    0.0000    0.0000    0.0000 N   0  0  0  0  0  0  0  0  0  0  0  0
    0.0000    0.0000    0.0000 C   0  0  0  0  0  0  0  0  0  0  0  0
    0.0000    0.0000    0.0000 O   0  0  0  0  0  0  0  0  0  0  0  0
    0.0000    0.0000    0.0000 C   0  0  0  0  0  0  0  0  0  0  0  0
  1  2  1  0
  2  3  1  0
  3  4  1  0
  4  5  1  0
  5  6  1  0
  6  7  1  0
  7  8  1  0
  8  9  1  0
  9 10  1  0
 10 11  1  0
  2 12  1  0
 12 13  2  0
 12 14  1  0
 14 15  1  0
 15 16  1  0
 16 17  1  0
 17 18  2  0
 17 19  1  0
 14 20  1  0
 20 21  1  0
 21 22  2  0
 21 23  1  0
 23 24  1  0
 24 25  1  0
 25 26  2  0
 26 27  1  0
 27 28  2  0
 28 29  1  0
 29 30  2  0
 28 31  1  0
 31 32  1  0
 31 33  1  0
 31 34  1  0
 34 35  2  0
 34 36  1  0
 34 37  1  0
 23 38  1  0
 38 39  1  0
 39 40  2  0
 39 41  1  0
 11  6  1  0
 30 25  1  0
M  END
>  <pIC50>  (5) 
5.725

>  <ChEMBL_ID>  (5) 
CHEMBL58478

>  <document_journal>  (5) 
Bioorg. Med. Chem. Lett.

>  <bao_endpoint>  (5) 
BAO_0000190

>  <potential_duplicate>  (5) 
False

>  <uo_units>  (5) 
UO_0000065

>  <canonical_smiles>  (5) 
CN(CCCC1CCCCC1)C(=O)[C@H](CCC(=O)O)NC(=O)[C@H](Cc2ccc(cc2)C(F)(F)P(=O)(O)O)NC(=O)C

>  <parent_molecule_chembl_id>  (5) 
CHEMBL58478

>  <assay_type>  (5) 
B

>  <src_id>  (5) 
1

>  <ligand_efficiency>  (5) 
{u'le': u'0.19', u'bei': u'9.56', u'sei': u'3.15', u'lle': u'2.66'}

>  <standard_flag>  (5) 
True

>  <molecule_chembl_id>  (5) 
CHEMBL58478

>  <target_organism>  (5) 
Homo sapiens

>  <standard_units>  (5) 
nM

>  <record_id>  (5) 
97222

>  <document_chembl_id>  (5) 
CHEMBL1130490

>  <bao_format>  (5) 
BAO_0000357

>  <data_validity_description>  (5) 
None

>  <activity_id>  (5) 
159483

>  <standard_type>  (5) 
IC50

>  <target_chembl_id>  (5) 
CHEMBL1862

>  <data_validity_comment>  (5) 
None

>  <published_value>  (5) 
1.7

>  <document_year>  (5) 
1997

>  <target_pref_name>  (5) 
Tyrosine-protein kinase ABL

>  <assay_chembl_id>  (5) 
CHEMBL806527

>  <standard_relation>  (5) 
=

>  <assay_description>  (5) 
Radioligand displacement assay for the binding of [125I]Glu-Pro-Gln-pTyr-Glu-Glu-Ile-Pro-Ile-Tyr-Leu to ABL SH2 domain

>  <published_relation>  (5) 
=

>  <standard_value>  (5) 
1700

>  <qudt_units>  (5) 
http://www.openphacts.org/units/Nanomolar

>  <target_tax_id>  (5) 
9606

>  <bao_label>  (5) 
single protein format

>  <published_units>  (5) 
uM

>  <pchembl_value>  (5) 
5.77

>  <published_type>  (5) 
IC50

>  <activity_comment>  (5) 
None

$$$$

     RDKit          

 38 39  0  0  0  0  0  0  0  0999 V2000
    0.0000    0.0000    0.0000 C   0  0  0  0  0  0  0  0  0  0  0  0
    0.0000    0.0000    0.0000 C   0  0  0  0  0  0  0  0  0  0  0  0
    0.0000    0.0000    0.0000 C   0  0  0  0  0  0  0  0  0  0  0  0
    0.0000    0.0000    0.0000 N   0  0  0  0  0  0  0  0  0  0  0  0
    0.0000    0.0000    0.0000 C   0  0  0  0  0  0  0  0  0  0  0  0
    0.0000    0.0000    0.0000 O   0  0  0  0  0  0  0  0  0  0  0  0
    0.0000    0.0000    0.0000 C   0  0  0  0  0  0  0  0  0  0  0  0
    0.0000    0.0000    0.0000 C   0  0  0  0  0  0  0  0  0  0  0  0
    0.0000    0.0000    0.0000 C   0  0  0  0  0  0  0  0  0  0  0  0
    0.0000    0.0000    0.0000 C   0  0  0  0  0  0  0  0  0  0  0  0
    0.0000    0.0000    0.0000 C   0  0  0  0  0  0  0  0  0  0  0  0
    0.0000    0.0000    0.0000 C   0  0  0  0  0  0  0  0  0  0  0  0
    0.0000    0.0000    0.0000 C   0  0  0  0  0  0  0  0  0  0  0  0
    0.0000    0.0000    0.0000 C   0  0  0  0  0  0  0  0  0  0  0  0
    0.0000    0.0000    0.0000 C   0  0  0  0  0  0  0  0  0  0  0  0
    0.0000    0.0000    0.0000 F   0  0  0  0  0  0  0  0  0  0  0  0
    0.0000    0.0000    0.0000 F   0  0  0  0  0  0  0  0  0  0  0  0
    0.0000    0.0000    0.0000 P   0  0  0  0  0  0  0  0  0  0  0  0
    0.0000    0.0000    0.0000 O   0  0  0  0  0  0  0  0  0  0  0  0
    0.0000    0.0000    0.0000 O   0  0  0  0  0  0  0  0  0  0  0  0
    0.0000    0.0000    0.0000 O   0  0  0  0  0  0  0  0  0  0  0  0
    0.0000    0.0000    0.0000 N   0  0  0  0  0  0  0  0  0  0  0  0
    0.0000    0.0000    0.0000 C   0  0  0  0  0  0  0  0  0  0  0  0
    0.0000    0.0000    0.0000 O   0  0  0  0  0  0  0  0  0  0  0  0
    0.0000    0.0000    0.0000 C   0  0  0  0  0  0  0  0  0  0  0  0
    0.0000    0.0000    0.0000 C   0  0  0  0  0  0  0  0  0  0  0  0
    0.0000    0.0000    0.0000 O   0  0  0  0  0  0  0  0  0  0  0  0
    0.0000    0.0000    0.0000 N   0  0  0  0  0  0  0  0  0  0  0  0
    0.0000    0.0000    0.0000 C   0  0  0  0  0  0  0  0  0  0  0  0
    0.0000    0.0000    0.0000 C   0  0  0  0  0  0  0  0  0  0  0  0
    0.0000    0.0000    0.0000 C   0  0  0  0  0  0  0  0  0  0  0  0
    0.0000    0.0000    0.0000 C   0  0  0  0  0  0  0  0  0  0  0  0
    0.0000    0.0000    0.0000 C   0  0  0  0  0  0  0  0  0  0  0  0
    0.0000    0.0000    0.0000 C   0  0  0  0  0  0  0  0  0  0  0  0
    0.0000    0.0000    0.0000 C   0  0  0  0  0  0  0  0  0  0  0  0
    0.0000    0.0000    0.0000 C   0  0  0  0  0  0  0  0  0  0  0  0
    0.0000    0.0000    0.0000 C   0  0  0  0  0  0  0  0  0  0  0  0
    0.0000    0.0000    0.0000 C   0  0  0  0  0  0  0  0  0  0  0  0
  1  2  1  0
  2  3  1  0
  3  4  1  0
  4  5  1  0
  5  6  2  0
  5  7  1  0
  7  8  1  0
  8  9  1  0
  9 10  2  0
 10 11  1  0
 11 12  2  0
 12 13  1  0
 13 14  2  0
 12 15  1  0
 15 16  1  0
 15 17  1  0
 15 18  1  0
 18 19  2  0
 18 20  1  0
 18 21  1  0
  7 22  1  0
 22 23  1  0
 23 24  2  0
 23 25  1  0
  3 26  1  0
 26 27  2  0
 26 28  1  0
 28 29  1  0
 28 30  1  0
 30 31  1  0
 31 32  1  0
 32 33  1  0
 33 34  1  0
 34 35  1  0
 35 36  1  0
 36 37  1  0
 37 38  1  0
 14  9  1  0
 38 33  1  0
M  END
>  <pIC50>  (6) 
5.6

>  <ChEMBL_ID>  (6) 
CHEMBL298813

>  <document_journal>  (6) 
Bioorg. Med. Chem. Lett.

>  <bao_endpoint>  (6) 
BAO_0000190

>  <potential_duplicate>  (6) 
False

>  <uo_units>  (6) 
UO_0000065

>  <canonical_smiles>  (6) 
CC[C@H](NC(=O)[C@H](Cc1ccc(cc1)C(F)(F)P(=O)(O)O)NC(=O)C)C(=O)N(C)CCCC2CCCCC2

>  <parent_molecule_chembl_id>  (6) 
CHEMBL298813

>  <assay_type>  (6) 
B

>  <src_id>  (6) 
1

>  <ligand_efficiency>  (6) 
{u'le': u'0.21', u'bei': u'10.36', u'sei': u'3.97', u'lle': u'1.86'}

>  <standard_flag>  (6) 
True

>  <molecule_chembl_id>  (6) 
CHEMBL298813

>  <target_organism>  (6) 
Homo sapiens

>  <standard_units>  (6) 
nM

>  <record_id>  (6) 
97219

>  <document_chembl_id>  (6) 
CHEMBL1130490

>  <bao_format>  (6) 
BAO_0000357

>  <data_validity_description>  (6) 
None

>  <activity_id>  (6) 
160746

>  <standard_type>  (6) 
IC50

>  <target_chembl_id>  (6) 
CHEMBL1862

>  <data_validity_comment>  (6) 
None

>  <published_value>  (6) 
1.6

>  <document_year>  (6) 
1997

>  <target_pref_name>  (6) 
Tyrosine-protein kinase ABL

>  <assay_chembl_id>  (6) 
CHEMBL806527

>  <standard_relation>  (6) 
=

>  <assay_description>  (6) 
Radioligand displacement assay for the binding of [125I]Glu-Pro-Gln-pTyr-Glu-Glu-Ile-Pro-Ile-Tyr-Leu to ABL SH2 domain

>  <published_relation>  (6) 
=

>  <standard_value>  (6) 
1600

>  <qudt_units>  (6) 
http://www.openphacts.org/units/Nanomolar

>  <target_tax_id>  (6) 
9606

>  <bao_label>  (6) 
single protein format

>  <published_units>  (6) 
uM

>  <pchembl_value>  (6) 
5.8

>  <published_type>  (6) 
IC50

>  <activity_comment>  (6) 
None

$$$$

     RDKit          

 41 42  0  0  0  0  0  0  0  0999 V2000
    0.0000    0.0000    0.0000 C   0  0  0  0  0  0  0  0  0  0  0  0
    0.0000    0.0000    0.0000 C   0  0  0  0  0  0  0  0  0  0  0  0
    0.0000    0.0000    0.0000 O   0  0  0  0  0  0  0  0  0  0  0  0
    0.0000    0.0000    0.0000 N   0  0  0  0  0  0  0  0  0  0  0  0
    0.0000    0.0000    0.0000 C   0  0  0  0  0  0  0  0  0  0  0  0
    0.0000    0.0000    0.0000 C   0  0  0  0  0  0  0  0  0  0  0  0
    0.0000    0.0000    0.0000 C   0  0  0  0  0  0  0  0  0  0  0  0
    0.0000    0.0000    0.0000 C   0  0  0  0  0  0  0  0  0  0  0  0
    0.0000    0.0000    0.0000 C   0  0  0  0  0  0  0  0  0  0  0  0
    0.0000    0.0000    0.0000 C   0  0  0  0  0  0  0  0  0  0  0  0
    0.0000    0.0000    0.0000 O   0  0  0  0  0  0  0  0  0  0  0  0
    0.0000    0.0000    0.0000 P   0  0  0  0  0  0  0  0  0  0  0  0
    0.0000    0.0000    0.0000 O   0  0  0  0  0  0  0  0  0  0  0  0
    0.0000    0.0000    0.0000 O   0  0  0  0  0  0  0  0  0  0  0  0
    0.0000    0.0000    0.0000 O   0  0  0  0  0  0  0  0  0  0  0  0
    0.0000    0.0000    0.0000 C   0  0  0  0  0  0  0  0  0  0  0  0
    0.0000    0.0000    0.0000 C   0  0  0  0  0  0  0  0  0  0  0  0
    0.0000    0.0000    0.0000 C   0  0  0  0  0  0  0  0  0  0  0  0
    0.0000    0.0000    0.0000 O   0  0  0  0  0  0  0  0  0  0  0  0
    0.0000    0.0000    0.0000 N   0  0  0  0  0  0  0  0  0  0  0  0
    0.0000    0.0000    0.0000 C   0  0  0  0  0  0  0  0  0  0  0  0
    0.0000    0.0000    0.0000 C   0  0  0  0  0  0  0  0  0  0  0  0
    0.0000    0.0000    0.0000 C   0  0  0  0  0  0  0  0  0  0  0  0
    0.0000    0.0000    0.0000 C   0  0  0  0  0  0  0  0  0  0  0  0
    0.0000    0.0000    0.0000 O   0  0  0  0  0  0  0  0  0  0  0  0
    0.0000    0.0000    0.0000 O   0  0  0  0  0  0  0  0  0  0  0  0
    0.0000    0.0000    0.0000 C   0  0  0  0  0  0  0  0  0  0  0  0
    0.0000    0.0000    0.0000 O   0  0  0  0  0  0  0  0  0  0  0  0
    0.0000    0.0000    0.0000 N   0  0  0  0  0  0  0  0  0  0  0  0
    0.0000    0.0000    0.0000 C   0  0  0  0  0  0  0  0  0  0  0  0
    0.0000    0.0000    0.0000 C   0  0  0  0  0  0  0  0  0  0  0  0
    0.0000    0.0000    0.0000 C   0  0  0  0  0  0  0  0  0  0  0  0
    0.0000    0.0000    0.0000 C   0  0  0  0  0  0  0  0  0  0  0  0
    0.0000    0.0000    0.0000 C   0  0  0  0  0  0  0  0  0  0  0  0
    0.0000    0.0000    0.0000 C   0  0  0  0  0  0  0  0  0  0  0  0
    0.0000    0.0000    0.0000 C   0  0  0  0  0  0  0  0  0  0  0  0
    0.0000    0.0000    0.0000 C   0  0  0  0  0  0  0  0  0  0  0  0
    0.0000    0.0000    0.0000 C   0  0  0  0  0  0  0  0  0  0  0  0
    0.0000    0.0000    0.0000 C   0  0  0  0  0  0  0  0  0  0  0  0
    0.0000    0.0000    0.0000 O   0  0  0  0  0  0  0  0  0  0  0  0
    0.0000    0.0000    0.0000 N   0  0  0  0  0  0  0  0  0  0  0  0
  1  2  1  0
  2  3  2  0
  2  4  1  0
  4  5  1  0
  5  6  1  0
  6  7  1  0
  7  8  2  0
  8  9  1  0
  9 10  2  0
 10 11  1  0
 11 12  1  0
 12 13  2  0
 12 14  1  0
 12 15  1  0
 10 16  1  0
 16 17  2  0
  5 18  1  0
 18 19  2  0
 18 20  1  0
 20 21  1  0
 21 22  1  0
 22 23  1  0
 23 24  1  0
 24 25  2  0
 24 26  1  0
 21 27  1  0
 27 28  2  0
 27 29  1  0
 29 30  1  0
 30 31  1  0
 31 32  1  0
 32 33  1  0
 33 34  1  0
 34 35  1  0
 35 36  1  0
 36 37  1  0
 37 38  1  0
 30 39  1  0
 39 40  2  0
 39 41  1  0
 17  7  1  0
 38 33  1  0
M  END
>  <pIC50>  (7) 
5.235

>  <ChEMBL_ID>  (7) 
CHEMBL293803

>  <document_journal>  (7) 
Bioorg. Med. Chem. Lett.

>  <bao_endpoint>  (7) 
BAO_0000190

>  <potential_duplicate>  (7) 
False

>  <uo_units>  (7) 
UO_0000065

>  <canonical_smiles>  (7) 
CC(=O)N[C@@H](Cc1ccc(OP(=O)(O)O)cc1)C(=O)N[C@@H](CCC(=O)O)C(=O)N[C@@H](CCC2CCCCC2)C(=O)N

>  <parent_molecule_chembl_id>  (7) 
CHEMBL293803

>  <assay_type>  (7) 
B

>  <src_id>  (7) 
1

>  <ligand_efficiency>  (7) 
{u'le': u'0.18', u'bei': u'8.87', u'sei': u'2.17', u'lle': u'4.06'}

>  <standard_flag>  (7) 
True

>  <molecule_chembl_id>  (7) 
CHEMBL293803

>  <target_organism>  (7) 
Homo sapiens

>  <standard_units>  (7) 
nM

>  <record_id>  (7) 
97212

>  <document_chembl_id>  (7) 
CHEMBL1130490

>  <bao_format>  (7) 
BAO_0000357

>  <data_validity_description>  (7) 
None

>  <activity_id>  (7) 
163241

>  <standard_type>  (7) 
IC50

>  <target_chembl_id>  (7) 
CHEMBL1862

>  <data_validity_comment>  (7) 
None

>  <published_value>  (7) 
4.9

>  <document_year>  (7) 
1997

>  <target_pref_name>  (7) 
Tyrosine-protein kinase ABL

>  <assay_chembl_id>  (7) 
CHEMBL806527

>  <standard_relation>  (7) 
=

>  <assay_description>  (7) 
Radioligand displacement assay for the binding of [125I]Glu-Pro-Gln-pTyr-Glu-Glu-Ile-Pro-Ile-Tyr-Leu to ABL SH2 domain

>  <published_relation>  (7) 
=

>  <standard_value>  (7) 
4900

>  <qudt_units>  (7) 
http://www.openphacts.org/units/Nanomolar

>  <target_tax_id>  (7) 
9606

>  <bao_label>  (7) 
single protein format

>  <published_units>  (7) 
uM

>  <pchembl_value>  (7) 
5.31

>  <published_type>  (7) 
IC50

>  <activity_comment>  (7) 
None

$$$$

     RDKit          

 43 44  0  0  0  0  0  0  0  0999 V2000
    0.0000    0.0000    0.0000 C   0  0  0  0  0  0  0  0  0  0  0  0
    0.0000    0.0000    0.0000 C   0  0  0  0  0  0  0  0  0  0  0  0
    0.0000    0.0000    0.0000 O   0  0  0  0  0  0  0  0  0  0  0  0
    0.0000    0.0000    0.0000 N   0  0  0  0  0  0  0  0  0  0  0  0
    0.0000    0.0000    0.0000 C   0  0  0  0  0  0  0  0  0  0  0  0
    0.0000    0.0000    0.0000 C   0  0  0  0  0  0  0  0  0  0  0  0
    0.0000    0.0000    0.0000 C   0  0  0  0  0  0  0  0  0  0  0  0
    0.0000    0.0000    0.0000 C   0  0  0  0  0  0  0  0  0  0  0  0
    0.0000    0.0000    0.0000 C   0  0  0  0  0  0  0  0  0  0  0  0
    0.0000    0.0000    0.0000 C   0  0  0  0  0  0  0  0  0  0  0  0
    0.0000    0.0000    0.0000 C   0  0  0  0  0  0  0  0  0  0  0  0
    0.0000    0.0000    0.0000 C   0  0  0  0  0  0  0  0  0  0  0  0
    0.0000    0.0000    0.0000 C   0  0  0  0  0  0  0  0  0  0  0  0
    0.0000    0.0000    0.0000 F   0  0  0  0  0  0  0  0  0  0  0  0
    0.0000    0.0000    0.0000 F   0  0  0  0  0  0  0  0  0  0  0  0
    0.0000    0.0000    0.0000 P   0  0  0  0  0  0  0  0  0  0  0  0
    0.0000    0.0000    0.0000 O   0  0  0  0  0  0  0  0  0  0  0  0
    0.0000    0.0000    0.0000 O   0  0  0  0  0  0  0  0  0  0  0  0
    0.0000    0.0000    0.0000 O   0  0  0  0  0  0  0  0  0  0  0  0
    0.0000    0.0000    0.0000 C   0  0  0  0  0  0  0  0  0  0  0  0
    0.0000    0.0000    0.0000 O   0  0  0  0  0  0  0  0  0  0  0  0
    0.0000    0.0000    0.0000 N   0  0  0  0  0  0  0  0  0  0  0  0
    0.0000    0.0000    0.0000 C   0  0  0  0  0  0  0  0  0  0  0  0
    0.0000    0.0000    0.0000 C   0  0  0  0  0  0  0  0  0  0  0  0
    0.0000    0.0000    0.0000 C   0  0  0  0  0  0  0  0  0  0  0  0
    0.0000    0.0000    0.0000 C   0  0  0  0  0  0  0  0  0  0  0  0
    0.0000    0.0000    0.0000 O   0  0  0  0  0  0  0  0  0  0  0  0
    0.0000    0.0000    0.0000 O   0  0  0  0  0  0  0  0  0  0  0  0
    0.0000    0.0000    0.0000 C   0  0  0  0  0  0  0  0  0  0  0  0
    0.0000    0.0000    0.0000 O   0  0  0  0  0  0  0  0  0  0  0  0
    0.0000    0.0000    0.0000 N   0  0  0  0  0  0  0  0  0  0  0  0
    0.0000    0.0000    0.0000 C   0  0  0  0  0  0  0  0  0  0  0  0
    0.0000    0.0000    0.0000 C   0  0  0  0  0  0  0  0  0  0  0  0
    0.0000    0.0000    0.0000 C   0  0  0  0  0  0  0  0  0  0  0  0
    0.0000    0.0000    0.0000 C   0  0  0  0  0  0  0  0  0  0  0  0
    0.0000    0.0000    0.0000 C   0  0  0  0  0  0  0  0  0  0  0  0
    0.0000    0.0000    0.0000 C   0  0  0  0  0  0  0  0  0  0  0  0
    0.0000    0.0000    0.0000 C   0  0  0  0  0  0  0  0  0  0  0  0
    0.0000    0.0000    0.0000 C   0  0  0  0  0  0  0  0  0  0  0  0
    0.0000    0.0000    0.0000 C   0  0  0  0  0  0  0  0  0  0  0  0
    0.0000    0.0000    0.0000 C   0  0  0  0  0  0  0  0  0  0  0  0
    0.0000    0.0000    0.0000 O   0  0  0  0  0  0  0  0  0  0  0  0
    0.0000    0.0000    0.0000 N   0  0  0  0  0  0  0  0  0  0  0  0
  1  2  1  0
  2  3  2  0
  2  4  1  0
  4  5  1  0
  5  6  1  0
  6  7  1  0
  7  8  2  0
  8  9  1  0
  9 10  2  0
 10 11  1  0
 11 12  2  0
 10 13  1  0
 13 14  1  0
 13 15  1  0
 13 16  1  0
 16 17  2  0
 16 18  1  0
 16 19  1  0
  5 20  1  0
 20 21  2  0
 20 22  1  0
 22 23  1  0
 23 24  1  0
 24 25  1  0
 25 26  1  0
 26 27  2  0
 26 28  1  0
 23 29  1  0
 29 30  2  0
 29 31  1  0
 31 32  1  0
 32 33  1  0
 33 34  1  0
 34 35  1  0
 35 36  1  0
 36 37  1  0
 37 38  1  0
 38 39  1  0
 39 40  1  0
 32 41  1  0
 41 42  2  0
 41 43  1  0
 12  7  1  0
 40 35  1  0
M  END
>  <pIC50>  (8) 
5.885

>  <ChEMBL_ID>  (8) 
CHEMBL294692

>  <document_journal>  (8) 
Bioorg. Med. Chem. Lett.

>  <bao_endpoint>  (8) 
BAO_0000190

>  <potential_duplicate>  (8) 
False

>  <uo_units>  (8) 
UO_0000065

>  <canonical_smiles>  (8) 
CC(=O)N[C@@H](Cc1ccc(cc1)C(F)(F)P(=O)(O)O)C(=O)N[C@@H](CCC(=O)O)C(=O)N[C@@H](CCC2CCCCC2)C(=O)N

>  <parent_molecule_chembl_id>  (8) 
CHEMBL294692

>  <assay_type>  (8) 
B

>  <src_id>  (8) 
1

>  <ligand_efficiency>  (8) 
{u'le': u'0.19', u'bei': u'9.36', u'sei': u'2.52', u'lle': u'4.02'}

>  <standard_flag>  (8) 
True

>  <molecule_chembl_id>  (8) 
CHEMBL294692

>  <target_organism>  (8) 
Homo sapiens

>  <standard_units>  (8) 
nM

>  <record_id>  (8) 
97224

>  <document_chembl_id>  (8) 
CHEMBL1130490

>  <bao_format>  (8) 
BAO_0000357

>  <data_validity_description>  (8) 
None

>  <activity_id>  (8) 
163245

>  <standard_type>  (8) 
IC50

>  <target_chembl_id>  (8) 
CHEMBL1862

>  <data_validity_comment>  (8) 
None

>  <published_value>  (8) 
1.2

>  <document_year>  (8) 
1997

>  <target_pref_name>  (8) 
Tyrosine-protein kinase ABL

>  <assay_chembl_id>  (8) 
CHEMBL806527

>  <standard_relation>  (8) 
=

>  <assay_description>  (8) 
Radioligand displacement assay for the binding of [125I]Glu-Pro-Gln-pTyr-Glu-Glu-Ile-Pro-Ile-Tyr-Leu to ABL SH2 domain

>  <published_relation>  (8) 
=

>  <standard_value>  (8) 
1200

>  <qudt_units>  (8) 
http://www.openphacts.org/units/Nanomolar

>  <target_tax_id>  (8) 
9606

>  <bao_label>  (8) 
single protein format

>  <published_units>  (8) 
uM

>  <pchembl_value>  (8) 
5.92

>  <published_type>  (8) 
IC50

>  <activity_comment>  (8) 
None

$$$$

     RDKit          

 57 57  0  0  0  0  0  0  0  0999 V2000
    0.0000    0.0000    0.0000 C   0  0  0  0  0  0  0  0  0  0  0  0
    0.0000    0.0000    0.0000 C   0  0  0  0  0  0  0  0  0  0  0  0
    0.0000    0.0000    0.0000 C   0  0  0  0  0  0  0  0  0  0  0  0
    0.0000    0.0000    0.0000 C   0  0  0  0  0  0  0  0  0  0  0  0
    0.0000    0.0000    0.0000 C   0  0  0  0  0  0  0  0  0  0  0  0
    0.0000    0.0000    0.0000 N   0  0  0  0  0  0  0  0  0  0  0  0
    0.0000    0.0000    0.0000 C   0  0  0  0  0  0  0  0  0  0  0  0
    0.0000    0.0000    0.0000 O   0  0  0  0  0  0  0  0  0  0  0  0
    0.0000    0.0000    0.0000 C   0  0  0  0  0  0  0  0  0  0  0  0
    0.0000    0.0000    0.0000 C   0  0  0  0  0  0  0  0  0  0  0  0
    0.0000    0.0000    0.0000 C   0  0  0  0  0  0  0  0  0  0  0  0
    0.0000    0.0000    0.0000 C   0  0  0  0  0  0  0  0  0  0  0  0
    0.0000    0.0000    0.0000 O   0  0  0  0  0  0  0  0  0  0  0  0
    0.0000    0.0000    0.0000 O   0  0  0  0  0  0  0  0  0  0  0  0
    0.0000    0.0000    0.0000 N   0  0  0  0  0  0  0  0  0  0  0  0
    0.0000    0.0000    0.0000 C   0  0  0  0  0  0  0  0  0  0  0  0
    0.0000    0.0000    0.0000 O   0  0  0  0  0  0  0  0  0  0  0  0
    0.0000    0.0000    0.0000 C   0  0  0  0  0  0  0  0  0  0  0  0
    0.0000    0.0000    0.0000 C   0  0  0  0  0  0  0  0  0  0  0  0
    0.0000    0.0000    0.0000 C   0  0  0  0  0  0  0  0  0  0  0  0
    0.0000    0.0000    0.0000 C   0  0  0  0  0  0  0  0  0  0  0  0
    0.0000    0.0000    0.0000 O   0  0  0  0  0  0  0  0  0  0  0  0
    0.0000    0.0000    0.0000 O   0  0  0  0  0  0  0  0  0  0  0  0
    0.0000    0.0000    0.0000 N   0  0  0  0  0  0  0  0  0  0  0  0
    0.0000    0.0000    0.0000 C   0  0  0  0  0  0  0  0  0  0  0  0
    0.0000    0.0000    0.0000 O   0  0  0  0  0  0  0  0  0  0  0  0
    0.0000    0.0000    0.0000 C   0  0  0  0  0  0  0  0  0  0  0  0
    0.0000    0.0000    0.0000 C   0  0  0  0  0  0  0  0  0  0  0  0
    0.0000    0.0000    0.0000 C   0  0  0  0  0  0  0  0  0  0  0  0
    0.0000    0.0000    0.0000 C   0  0  0  0  0  0  0  0  0  0  0  0
    0.0000    0.0000    0.0000 C   0  0  0  0  0  0  0  0  0  0  0  0
    0.0000    0.0000    0.0000 C   0  0  0  0  0  0  0  0  0  0  0  0
    0.0000    0.0000    0.0000 C   0  0  0  0  0  0  0  0  0  0  0  0
    0.0000    0.0000    0.0000 C   0  0  0  0  0  0  0  0  0  0  0  0
    0.0000    0.0000    0.0000 C   0  0  0  0  0  0  0  0  0  0  0  0
    0.0000    0.0000    0.0000 F   0  0  0  0  0  0  0  0  0  0  0  0
    0.0000    0.0000    0.0000 F   0  0  0  0  0  0  0  0  0  0  0  0
    0.0000    0.0000    0.0000 P   0  0  0  0  0  0  0  0  0  0  0  0
    0.0000    0.0000    0.0000 O   0  0  0  0  0  0  0  0  0  0  0  0
    0.0000    0.0000    0.0000 O   0  0  0  0  0  0  0  0  0  0  0  0
    0.0000    0.0000    0.0000 O   0  0  0  0  0  0  0  0  0  0  0  0
    0.0000    0.0000    0.0000 N   0  0  0  0  0  0  0  0  0  0  0  0
    0.0000    0.0000    0.0000 C   0  0  0  0  0  0  0  0  0  0  0  0
    0.0000    0.0000    0.0000 O   0  0  0  0  0  0  0  0  0  0  0  0
    0.0000    0.0000    0.0000 C   0  0  0  0  0  0  0  0  0  0  0  0
    0.0000    0.0000    0.0000 C   0  0  0  0  0  0  0  0  0  0  0  0
    0.0000    0.0000    0.0000 O   0  0  0  0  0  0  0  0  0  0  0  0
    0.0000    0.0000    0.0000 N   0  0  0  0  0  0  0  0  0  0  0  0
    0.0000    0.0000    0.0000 C   0  0  0  0  0  0  0  0  0  0  0  0
    0.0000    0.0000    0.0000 C   0  0  0  0  0  0  0  0  0  0  0  0
    0.0000    0.0000    0.0000 C   0  0  0  0  0  0  0  0  0  0  0  0
    0.0000    0.0000    0.0000 C   0  0  0  0  0  0  0  0  0  0  0  0
    0.0000    0.0000    0.0000 O   0  0  0  0  0  0  0  0  0  0  0  0
    0.0000    0.0000    0.0000 O   0  0  0  0  0  0  0  0  0  0  0  0
    0.0000    0.0000    0.0000 C   0  0  0  0  0  0  0  0  0  0  0  0
    0.0000    0.0000    0.0000 O   0  0  0  0  0  0  0  0  0  0  0  0
    0.0000    0.0000    0.0000 O   0  0  0  0  0  0  0  0  0  0  0  0
  1  2  1  0
  2  3  1  0
  3  4  1  0
  3  5  1  0
  5  6  1  0
  6  7  1  0
  7  8  2  0
  7  9  1  0
  9 10  1  0
 10 11  1  0
 11 12  1  0
 12 13  2  0
 12 14  1  0
  9 15  1  0
 15 16  1  0
 16 17  2  0
 16 18  1  0
 18 19  1  0
 19 20  1  0
 20 21  1  0
 21 22  2  0
 21 23  1  0
 18 24  1  0
 24 25  1  0
 25 26  2  0
 25 27  1  0
 27 28  1  0
 28 29  1  0
 29 30  2  0
 30 31  1  0
 31 32  2  0
 32 33  1  0
 33 34  2  0
 32 35  1  0
 35 36  1  0
 35 37  1  0
 35 38  1  0
 38 39  2  0
 38 40  1  0
 38 41  1  0
 27 42  1  0
 42 43  1  0
 43 44  2  0
 43 45  1  0
  5 46  1  0
 46 47  2  0
 46 48  1  0
 48 49  1  0
 49 50  1  0
 50 51  1  0
 51 52  1  0
 52 53  2  0
 52 54  1  0
 49 55  1  0
 55 56  2  0
 55 57  1  0
 34 29  1  0
M  END
>  <pIC50>  (9) 
5.6

>  <ChEMBL_ID>  (9) 
CHEMBL294420

>  <document_journal>  (9) 
Bioorg. Med. Chem. Lett.

>  <bao_endpoint>  (9) 
BAO_0000190

>  <potential_duplicate>  (9) 
False

>  <uo_units>  (9) 
UO_0000065

>  <canonical_smiles>  (9) 
CC[C@H](C)[C@H](NC(=O)[C@H](CCC(=O)O)NC(=O)[C@H](CCC(=O)O)NC(=O)[C@H](Cc1ccc(cc1)C(F)(F)P(=O)(O)O)NC(=O)C)C(=O)N[C@@H](CCC(=O)O)C(=O)O

>  <parent_molecule_chembl_id>  (9) 
CHEMBL294420

>  <assay_type>  (9) 
B

>  <src_id>  (9) 
1

>  <ligand_efficiency>  (9) 
{u'le': u'0.14', u'bei': u'7.07', u'sei': u'1.64', u'lle': u'6.29'}

>  <standard_flag>  (9) 
True

>  <molecule_chembl_id>  (9) 
CHEMBL294420

>  <target_organism>  (9) 
Homo sapiens

>  <standard_units>  (9) 
nM

>  <record_id>  (9) 
97228

>  <document_chembl_id>  (9) 
CHEMBL1130490

>  <bao_format>  (9) 
BAO_0000357

>  <data_validity_description>  (9) 
None

>  <activity_id>  (9) 
165535

>  <standard_type>  (9) 
IC50

>  <target_chembl_id>  (9) 
CHEMBL1862

>  <data_validity_comment>  (9) 
None

>  <published_value>  (9) 
1.2

>  <document_year>  (9) 
1997

>  <target_pref_name>  (9) 
Tyrosine-protein kinase ABL

>  <assay_chembl_id>  (9) 
CHEMBL806527

>  <standard_relation>  (9) 
=

>  <assay_description>  (9) 
Radioligand displacement assay for the binding of [125I]Glu-Pro-Gln-pTyr-Glu-Glu-Ile-Pro-Ile-Tyr-Leu to ABL SH2 domain

>  <published_relation>  (9) 
=

>  <standard_value>  (9) 
1200

>  <qudt_units>  (9) 
http://www.openphacts.org/units/Nanomolar

>  <target_tax_id>  (9) 
9606

>  <bao_label>  (9) 
single protein format

>  <published_units>  (9) 
uM

>  <pchembl_value>  (9) 
5.92

>  <published_type>  (9) 
IC50

>  <activity_comment>  (9) 
None

$$$$

     RDKit          

 55 55  0  0  0  0  0  0  0  0999 V2000
    0.0000    0.0000    0.0000 C   0  0  0  0  0  0  0  0  0  0  0  0
    0.0000    0.0000    0.0000 C   0  0  0  0  0  0  0  0  0  0  0  0
    0.0000    0.0000    0.0000 C   0  0  0  0  0  0  0  0  0  0  0  0
    0.0000    0.0000    0.0000 C   0  0  0  0  0  0  0  0  0  0  0  0
    0.0000    0.0000    0.0000 C   0  0  0  0  0  0  0  0  0  0  0  0
    0.0000    0.0000    0.0000 N   0  0  0  0  0  0  0  0  0  0  0  0
    0.0000    0.0000    0.0000 C   0  0  0  0  0  0  0  0  0  0  0  0
    0.0000    0.0000    0.0000 O   0  0  0  0  0  0  0  0  0  0  0  0
    0.0000    0.0000    0.0000 C   0  0  0  0  0  0  0  0  0  0  0  0
    0.0000    0.0000    0.0000 C   0  0  0  0  0  0  0  0  0  0  0  0
    0.0000    0.0000    0.0000 C   0  0  0  0  0  0  0  0  0  0  0  0
    0.0000    0.0000    0.0000 C   0  0  0  0  0  0  0  0  0  0  0  0
    0.0000    0.0000    0.0000 O   0  0  0  0  0  0  0  0  0  0  0  0
    0.0000    0.0000    0.0000 O   0  0  0  0  0  0  0  0  0  0  0  0
    0.0000    0.0000    0.0000 N   0  0  0  0  0  0  0  0  0  0  0  0
    0.0000    0.0000    0.0000 C   0  0  0  0  0  0  0  0  0  0  0  0
    0.0000    0.0000    0.0000 O   0  0  0  0  0  0  0  0  0  0  0  0
    0.0000    0.0000    0.0000 C   0  0  0  0  0  0  0  0  0  0  0  0
    0.0000    0.0000    0.0000 C   0  0  0  0  0  0  0  0  0  0  0  0
    0.0000    0.0000    0.0000 C   0  0  0  0  0  0  0  0  0  0  0  0
    0.0000    0.0000    0.0000 C   0  0  0  0  0  0  0  0  0  0  0  0
    0.0000    0.0000    0.0000 O   0  0  0  0  0  0  0  0  0  0  0  0
    0.0000    0.0000    0.0000 O   0  0  0  0  0  0  0  0  0  0  0  0
    0.0000    0.0000    0.0000 N   0  0  0  0  0  0  0  0  0  0  0  0
    0.0000    0.0000    0.0000 C   0  0  0  0  0  0  0  0  0  0  0  0
    0.0000    0.0000    0.0000 O   0  0  0  0  0  0  0  0  0  0  0  0
    0.0000    0.0000    0.0000 C   0  0  0  0  0  0  0  0  0  0  0  0
    0.0000    0.0000    0.0000 C   0  0  0  0  0  0  0  0  0  0  0  0
    0.0000    0.0000    0.0000 C   0  0  0  0  0  0  0  0  0  0  0  0
    0.0000    0.0000    0.0000 C   0  0  0  0  0  0  0  0  0  0  0  0
    0.0000    0.0000    0.0000 C   0  0  0  0  0  0  0  0  0  0  0  0
    0.0000    0.0000    0.0000 C   0  0  0  0  0  0  0  0  0  0  0  0
    0.0000    0.0000    0.0000 O   0  0  0  0  0  0  0  0  0  0  0  0
    0.0000    0.0000    0.0000 P   0  0  0  0  0  0  0  0  0  0  0  0
    0.0000    0.0000    0.0000 O   0  0  0  0  0  0  0  0  0  0  0  0
    0.0000    0.0000    0.0000 O   0  0  0  0  0  0  0  0  0  0  0  0
    0.0000    0.0000    0.0000 O   0  0  0  0  0  0  0  0  0  0  0  0
    0.0000    0.0000    0.0000 C   0  0  0  0  0  0  0  0  0  0  0  0
    0.0000    0.0000    0.0000 C   0  0  0  0  0  0  0  0  0  0  0  0
    0.0000    0.0000    0.0000 N   0  0  0  0  0  0  0  0  0  0  0  0
    0.0000    0.0000    0.0000 C   0  0  0  0  0  0  0  0  0  0  0  0
    0.0000    0.0000    0.0000 O   0  0  0  0  0  0  0  0  0  0  0  0
    0.0000    0.0000    0.0000 C   0  0  0  0  0  0  0  0  0  0  0  0
    0.0000    0.0000    0.0000 C   0  0  0  0  0  0  0  0  0  0  0  0
    0.0000    0.0000    0.0000 O   0  0  0  0  0  0  0  0  0  0  0  0
    0.0000    0.0000    0.0000 N   0  0  0  0  0  0  0  0  0  0  0  0
    0.0000    0.0000    0.0000 C   0  0  0  0  0  0  0  0  0  0  0  0
    0.0000    0.0000    0.0000 C   0  0  0  0  0  0  0  0  0  0  0  0
    0.0000    0.0000    0.0000 C   0  0  0  0  0  0  0  0  0  0  0  0
    0.0000    0.0000    0.0000 C   0  0  0  0  0  0  0  0  0  0  0  0
    0.0000    0.0000    0.0000 O   0  0  0  0  0  0  0  0  0  0  0  0
    0.0000    0.0000    0.0000 O   0  0  0  0  0  0  0  0  0  0  0  0
    0.0000    0.0000    0.0000 C   0  0  0  0  0  0  0  0  0  0  0  0
    0.0000    0.0000    0.0000 O   0  0  0  0  0  0  0  0  0  0  0  0
    0.0000    0.0000    0.0000 O   0  0  0  0  0  0  0  0  0  0  0  0
  1  2  1  0
  2  3  1  0
  3  4  1  0
  3  5  1  0
  5  6  1  0
  6  7  1  0
  7  8  2  0
  7  9  1  0
  9 10  1  0
 10 11  1  0
 11 12  1  0
 12 13  2  0
 12 14  1  0
  9 15  1  0
 15 16  1  0
 16 17  2  0
 16 18  1  0
 18 19  1  0
 19 20  1  0
 20 21  1  0
 21 22  2  0
 21 23  1  0
 18 24  1  0
 24 25  1  0
 25 26  2  0
 25 27  1  0
 27 28  1  0
 28 29  1  0
 29 30  2  0
 30 31  1  0
 31 32  2  0
 32 33  1  0
 33 34  1  0
 34 35  2  0
 34 36  1  0
 34 37  1  0
 32 38  1  0
 38 39  2  0
 27 40  1  0
 40 41  1  0
 41 42  2  0
 41 43  1  0
  5 44  1  0
 44 45  2  0
 44 46  1  0
 46 47  1  0
 47 48  1  0
 48 49  1  0
 49 50  1  0
 50 51  2  0
 50 52  1  0
 47 53  1  0
 53 54  2  0
 53 55  1  0
 39 29  1  0
M  END
>  <pIC50>  (10) 
4.96

>  <ChEMBL_ID>  (10) 
CHEMBL299477

>  <document_journal>  (10) 
Bioorg. Med. Chem. Lett.

>  <bao_endpoint>  (10) 
BAO_0000190

>  <potential_duplicate>  (10) 
False

>  <uo_units>  (10) 
UO_0000065

>  <canonical_smiles>  (10) 
CC[C@H](C)[C@H](NC(=O)[C@H](CCC(=O)O)NC(=O)[C@H](CCC(=O)O)NC(=O)[C@H](Cc1ccc(OP(=O)(O)O)cc1)NC(=O)C)C(=O)N[C@@H](CCC(=O)O)C(=O)O

>  <parent_molecule_chembl_id>  (10) 
CHEMBL299477

>  <assay_type>  (10) 
B

>  <src_id>  (10) 
1

>  <ligand_efficiency>  (10) 
{u'le': u'0.13', u'bei': u'6.35', u'sei': u'1.37', u'lle': u'6.12'}

>  <standard_flag>  (10) 
True

>  <molecule_chembl_id>  (10) 
CHEMBL299477

>  <target_organism>  (10) 
Homo sapiens

>  <standard_units>  (10) 
nM

>  <record_id>  (10) 
97227

>  <document_chembl_id>  (10) 
CHEMBL1130490

>  <bao_format>  (10) 
BAO_0000357

>  <data_validity_description>  (10) 
None

>  <activity_id>  (10) 
166851

>  <standard_type>  (10) 
IC50

>  <target_chembl_id>  (10) 
CHEMBL1862

>  <data_validity_comment>  (10) 
None

>  <published_value>  (10) 
7.9

>  <document_year>  (10) 
1997

>  <target_pref_name>  (10) 
Tyrosine-protein kinase ABL

>  <assay_chembl_id>  (10) 
CHEMBL806527

>  <standard_relation>  (10) 
=

>  <assay_description>  (10) 
Radioligand displacement assay for the binding of [125I]Glu-Pro-Gln-pTyr-Glu-Glu-Ile-Pro-Ile-Tyr-Leu to ABL SH2 domain

>  <published_relation>  (10) 
=

>  <standard_value>  (10) 
7900

>  <qudt_units>  (10) 
http://www.openphacts.org/units/Nanomolar

>  <target_tax_id>  (10) 
9606

>  <bao_label>  (10) 
single protein format

>  <published_units>  (10) 
uM

>  <pchembl_value>  (10) 
5.1

>  <published_type>  (10) 
IC50

>  <activity_comment>  (10) 
None

$$$$

     RDKit          

 38 39  0  0  0  0  0  0  0  0999 V2000
    0.0000    0.0000    0.0000 C   0  0  0  0  0  0  0  0  0  0  0  0
    0.0000    0.0000    0.0000 N   0  0  0  0  0  0  0  0  0  0  0  0
    0.0000    0.0000    0.0000 C   0  0  0  0  0  0  0  0  0  0  0  0
    0.0000    0.0000    0.0000 C   0  0  0  0  0  0  0  0  0  0  0  0
    0.0000    0.0000    0.0000 C   0  0  0  0  0  0  0  0  0  0  0  0
    0.0000    0.0000    0.0000 C   0  0  0  0  0  0  0  0  0  0  0  0
    0.0000    0.0000    0.0000 C   0  0  0  0  0  0  0  0  0  0  0  0
    0.0000    0.0000    0.0000 C   0  0  0  0  0  0  0  0  0  0  0  0
    0.0000    0.0000    0.0000 C   0  0  0  0  0  0  0  0  0  0  0  0
    0.0000    0.0000    0.0000 C   0  0  0  0  0  0  0  0  0  0  0  0
    0.0000    0.0000    0.0000 C   0  0  0  0  0  0  0  0  0  0  0  0
    0.0000    0.0000    0.0000 C   0  0  0  0  0  0  0  0  0  0  0  0
    0.0000    0.0000    0.0000 O   0  0  0  0  0  0  0  0  0  0  0  0
    0.0000    0.0000    0.0000 C   0  0  0  0  0  0  0  0  0  0  0  0
    0.0000    0.0000    0.0000 C   0  0  0  0  0  0  0  0  0  0  0  0
    0.0000    0.0000    0.0000 C   0  0  0  0  0  0  0  0  0  0  0  0
    0.0000    0.0000    0.0000 C   0  0  0  0  0  0  0  0  0  0  0  0
    0.0000    0.0000    0.0000 O   0  0  0  0  0  0  0  0  0  0  0  0
    0.0000    0.0000    0.0000 O   0  0  0  0  0  0  0  0  0  0  0  0
    0.0000    0.0000    0.0000 N   0  0  0  0  0  0  0  0  0  0  0  0
    0.0000    0.0000    0.0000 C   0  0  0  0  0  0  0  0  0  0  0  0
    0.0000    0.0000    0.0000 O   0  0  0  0  0  0  0  0  0  0  0  0
    0.0000    0.0000    0.0000 C   0  0  0  0  0  0  0  0  0  0  0  0
    0.0000    0.0000    0.0000 C   0  0  0  0  0  0  0  0  0  0  0  0
    0.0000    0.0000    0.0000 C   0  0  0  0  0  0  0  0  0  0  0  0
    0.0000    0.0000    0.0000 C   0  0  0  0  0  0  0  0  0  0  0  0
    0.0000    0.0000    0.0000 C   0  0  0  0  0  0  0  0  0  0  0  0
    0.0000    0.0000    0.0000 C   0  0  0  0  0  0  0  0  0  0  0  0
    0.0000    0.0000    0.0000 C   0  0  0  0  0  0  0  0  0  0  0  0
    0.0000    0.0000    0.0000 C   0  0  0  0  0  0  0  0  0  0  0  0
    0.0000    0.0000    0.0000 P   0  0  0  0  0  0  0  0  0  0  0  0
    0.0000    0.0000    0.0000 O   0  0  0  0  0  0  0  0  0  0  0  0
    0.0000    0.0000    0.0000 O   0  0  0  0  0  0  0  0  0  0  0  0
    0.0000    0.0000    0.0000 O   0  0  0  0  0  0  0  0  0  0  0  0
    0.0000    0.0000    0.0000 N   0  0  0  0  0  0  0  0  0  0  0  0
    0.0000    0.0000    0.0000 C   0  0  0  0  0  0  0  0  0  0  0  0
    0.0000    0.0000    0.0000 O   0  0  0  0  0  0  0  0  0  0  0  0
    0.0000    0.0000    0.0000 C   0  0  0  0  0  0  0  0  0  0  0  0
  1  2  1  0
  2  3  1  0
  3  4  1  0
  4  5  1  0
  5  6  1  0
  6  7  1  0
  7  8  1  0
  8  9  1  0
  9 10  1  0
 10 11  1  0
  2 12  1  0
 12 13  2  0
 12 14  1  0
 14 15  1  0
 15 16  1  0
 16 17  1  0
 17 18  2  0
 17 19  1  0
 14 20  1  0
 20 21  1  0
 21 22  2  0
 21 23  1  0
 23 24  1  0
 24 25  1  0
 25 26  2  0
 26 27  1  0
 27 28  2  0
 28 29  1  0
 29 30  2  0
 28 31  1  0
 31 32  2  0
 31 33  1  0
 31 34  1  0
 23 35  1  0
 35 36  1  0
 36 37  2  0
 36 38  1  0
 11  6  1  0
 30 25  1  0
M  END
>  <pIC50>  (11) 
4.85

>  <ChEMBL_ID>  (11) 
CHEMBL57393

>  <document_journal>  (11) 
Bioorg. Med. Chem. Lett.

>  <bao_endpoint>  (11) 
BAO_0000190

>  <potential_duplicate>  (11) 
False

>  <uo_units>  (11) 
UO_0000065

>  <canonical_smiles>  (11) 
CN(CCCC1CCCCC1)C(=O)[C@H](CCC(=O)O)NC(=O)[C@H](Cc2ccc(cc2)P(=O)(O)O)NC(=O)C

>  <parent_molecule_chembl_id>  (11) 
CHEMBL57393

>  <assay_type>  (11) 
B

>  <src_id>  (11) 
1

>  <ligand_efficiency>  (11) 
{u'le': u'0.17', u'bei': u'8.77', u'sei': u'2.65', u'lle': u'2.73'}

>  <standard_flag>  (11) 
True

>  <molecule_chembl_id>  (11) 
CHEMBL57393

>  <target_organism>  (11) 
Homo sapiens

>  <standard_units>  (11) 
nM

>  <record_id>  (11) 
97221

>  <document_chembl_id>  (11) 
CHEMBL1130490

>  <bao_format>  (11) 
BAO_0000357

>  <data_validity_description>  (11) 
None

>  <activity_id>  (11) 
166855

>  <standard_type>  (11) 
IC50

>  <target_chembl_id>  (11) 
CHEMBL1862

>  <data_validity_comment>  (11) 
None

>  <published_value>  (11) 
14

>  <document_year>  (11) 
1997

>  <target_pref_name>  (11) 
Tyrosine-protein kinase ABL

>  <assay_chembl_id>  (11) 
CHEMBL806527

>  <standard_relation>  (11) 
=

>  <assay_description>  (11) 
Radioligand displacement assay for the binding of [125I]Glu-Pro-Gln-pTyr-Glu-Glu-Ile-Pro-Ile-Tyr-Leu to ABL SH2 domain

>  <published_relation>  (11) 
=

>  <standard_value>  (11) 
14000

>  <qudt_units>  (11) 
http://www.openphacts.org/units/Nanomolar

>  <target_tax_id>  (11) 
9606

>  <bao_label>  (11) 
single protein format

>  <published_units>  (11) 
uM

>  <pchembl_value>  (11) 
4.85

>  <published_type>  (11) 
IC50

>  <activity_comment>  (11) 
None

$$$$

     RDKit          

 35 36  0  0  0  0  0  0  0  0999 V2000
    0.0000    0.0000    0.0000 C   0  0  0  0  0  0  0  0  0  0  0  0
    0.0000    0.0000    0.0000 C   0  0  0  0  0  0  0  0  0  0  0  0
    0.0000    0.0000    0.0000 C   0  0  0  0  0  0  0  0  0  0  0  0
    0.0000    0.0000    0.0000 N   0  0  0  0  0  0  0  0  0  0  0  0
    0.0000    0.0000    0.0000 C   0  0  0  0  0  0  0  0  0  0  0  0
    0.0000    0.0000    0.0000 O   0  0  0  0  0  0  0  0  0  0  0  0
    0.0000    0.0000    0.0000 C   0  0  0  0  0  0  0  0  0  0  0  0
    0.0000    0.0000    0.0000 C   0  0  0  0  0  0  0  0  0  0  0  0
    0.0000    0.0000    0.0000 C   0  0  0  0  0  0  0  0  0  0  0  0
    0.0000    0.0000    0.0000 C   0  0  0  0  0  0  0  0  0  0  0  0
    0.0000    0.0000    0.0000 C   0  0  0  0  0  0  0  0  0  0  0  0
    0.0000    0.0000    0.0000 C   0  0  0  0  0  0  0  0  0  0  0  0
    0.0000    0.0000    0.0000 C   0  0  0  0  0  0  0  0  0  0  0  0
    0.0000    0.0000    0.0000 C   0  0  0  0  0  0  0  0  0  0  0  0
    0.0000    0.0000    0.0000 P   0  0  0  0  0  0  0  0  0  0  0  0
    0.0000    0.0000    0.0000 O   0  0  0  0  0  0  0  0  0  0  0  0
    0.0000    0.0000    0.0000 O   0  0  0  0  0  0  0  0  0  0  0  0
    0.0000    0.0000    0.0000 O   0  0  0  0  0  0  0  0  0  0  0  0
    0.0000    0.0000    0.0000 N   0  0  0  0  0  0  0  0  0  0  0  0
    0.0000    0.0000    0.0000 C   0  0  0  0  0  0  0  0  0  0  0  0
    0.0000    0.0000    0.0000 O   0  0  0  0  0  0  0  0  0  0  0  0
    0.0000    0.0000    0.0000 C   0  0  0  0  0  0  0  0  0  0  0  0
    0.0000    0.0000    0.0000 C   0  0  0  0  0  0  0  0  0  0  0  0
    0.0000    0.0000    0.0000 O   0  0  0  0  0  0  0  0  0  0  0  0
    0.0000    0.0000    0.0000 N   0  0  0  0  0  0  0  0  0  0  0  0
    0.0000    0.0000    0.0000 C   0  0  0  0  0  0  0  0  0  0  0  0
    0.0000    0.0000    0.0000 C   0  0  0  0  0  0  0  0  0  0  0  0
    0.0000    0.0000    0.0000 C   0  0  0  0  0  0  0  0  0  0  0  0
    0.0000    0.0000    0.0000 C   0  0  0  0  0  0  0  0  0  0  0  0
    0.0000    0.0000    0.0000 C   0  0  0  0  0  0  0  0  0  0  0  0
    0.0000    0.0000    0.0000 C   0  0  0  0  0  0  0  0  0  0  0  0
    0.0000    0.0000    0.0000 C   0  0  0  0  0  0  0  0  0  0  0  0
    0.0000    0.0000    0.0000 C   0  0  0  0  0  0  0  0  0  0  0  0
    0.0000    0.0000    0.0000 C   0  0  0  0  0  0  0  0  0  0  0  0
    0.0000    0.0000    0.0000 C   0  0  0  0  0  0  0  0  0  0  0  0
  1  2  1  0
  2  3  1  0
  3  4  1  0
  4  5  1  0
  5  6  2  0
  5  7  1  0
  7  8  1  0
  8  9  1  0
  9 10  2  0
 10 11  1  0
 11 12  2  0
 12 13  1  0
 13 14  2  0
 12 15  1  0
 15 16  2  0
 15 17  1  0
 15 18  1  0
  7 19  1  0
 19 20  1  0
 20 21  2  0
 20 22  1  0
  3 23  1  0
 23 24  2  0
 23 25  1  0
 25 26  1  0
 25 27  1  0
 27 28  1  0
 28 29  1  0
 29 30  1  0
 30 31  1  0
 31 32  1  0
 32 33  1  0
 33 34  1  0
 34 35  1  0
 14  9  1  0
 35 30  1  0
M  END
>  <pIC50>  (12) 
4.715

>  <ChEMBL_ID>  (12) 
CHEMBL58421

>  <document_journal>  (12) 
Bioorg. Med. Chem. Lett.

>  <bao_endpoint>  (12) 
BAO_0000190

>  <potential_duplicate>  (12) 
False

>  <uo_units>  (12) 
UO_0000065

>  <canonical_smiles>  (12) 
CC[C@H](NC(=O)[C@H](Cc1ccc(cc1)P(=O)(O)O)NC(=O)C)C(=O)N(C)CCCC2CCCCC2

>  <parent_molecule_chembl_id>  (12) 
CHEMBL58421

>  <assay_type>  (12) 
B

>  <src_id>  (12) 
1

>  <ligand_efficiency>  (12) 
{u'le': u'0.18', u'bei': u'9.14', u'sei': u'3.19', u'lle': u'1.72'}

>  <standard_flag>  (12) 
True

>  <molecule_chembl_id>  (12) 
CHEMBL58421

>  <target_organism>  (12) 
Homo sapiens

>  <standard_units>  (12) 
nM

>  <record_id>  (12) 
97218

>  <document_chembl_id>  (12) 
CHEMBL1130490

>  <bao_format>  (12) 
BAO_0000357

>  <data_validity_description>  (12) 
None

>  <activity_id>  (12) 
175240

>  <standard_type>  (12) 
IC50

>  <target_chembl_id>  (12) 
CHEMBL1862

>  <data_validity_comment>  (12) 
None

>  <published_value>  (12) 
22

>  <document_year>  (12) 
1997

>  <target_pref_name>  (12) 
Tyrosine-protein kinase ABL

>  <assay_chembl_id>  (12) 
CHEMBL806527

>  <standard_relation>  (12) 
=

>  <assay_description>  (12) 
Radioligand displacement assay for the binding of [125I]Glu-Pro-Gln-pTyr-Glu-Glu-Ile-Pro-Ile-Tyr-Leu to ABL SH2 domain

>  <published_relation>  (12) 
=

>  <standard_value>  (12) 
22000

>  <qudt_units>  (12) 
http://www.openphacts.org/units/Nanomolar

>  <target_tax_id>  (12) 
9606

>  <bao_label>  (12) 
single protein format

>  <published_units>  (12) 
uM

>  <pchembl_value>  (12) 
4.66

>  <published_type>  (12) 
IC50

>  <activity_comment>  (12) 
None

$$$$

     RDKit          

 54 54  0  0  0  0  0  0  0  0999 V2000
    0.0000    0.0000    0.0000 C   0  0  0  0  0  0  0  0  0  0  0  0
    0.0000    0.0000    0.0000 C   0  0  0  0  0  0  0  0  0  0  0  0
    0.0000    0.0000    0.0000 C   0  0  0  0  0  0  0  0  0  0  0  0
    0.0000    0.0000    0.0000 C   0  0  0  0  0  0  0  0  0  0  0  0
    0.0000    0.0000    0.0000 C   0  0  0  0  0  0  0  0  0  0  0  0
    0.0000    0.0000    0.0000 N   0  0  0  0  0  0  0  0  0  0  0  0
    0.0000    0.0000    0.0000 C   0  0  0  0  0  0  0  0  0  0  0  0
    0.0000    0.0000    0.0000 O   0  0  0  0  0  0  0  0  0  0  0  0
    0.0000    0.0000    0.0000 C   0  0  0  0  0  0  0  0  0  0  0  0
    0.0000    0.0000    0.0000 C   0  0  0  0  0  0  0  0  0  0  0  0
    0.0000    0.0000    0.0000 C   0  0  0  0  0  0  0  0  0  0  0  0
    0.0000    0.0000    0.0000 C   0  0  0  0  0  0  0  0  0  0  0  0
    0.0000    0.0000    0.0000 O   0  0  0  0  0  0  0  0  0  0  0  0
    0.0000    0.0000    0.0000 O   0  0  0  0  0  0  0  0  0  0  0  0
    0.0000    0.0000    0.0000 N   0  0  0  0  0  0  0  0  0  0  0  0
    0.0000    0.0000    0.0000 C   0  0  0  0  0  0  0  0  0  0  0  0
    0.0000    0.0000    0.0000 O   0  0  0  0  0  0  0  0  0  0  0  0
    0.0000    0.0000    0.0000 C   0  0  0  0  0  0  0  0  0  0  0  0
    0.0000    0.0000    0.0000 C   0  0  0  0  0  0  0  0  0  0  0  0
    0.0000    0.0000    0.0000 C   0  0  0  0  0  0  0  0  0  0  0  0
    0.0000    0.0000    0.0000 C   0  0  0  0  0  0  0  0  0  0  0  0
    0.0000    0.0000    0.0000 O   0  0  0  0  0  0  0  0  0  0  0  0
    0.0000    0.0000    0.0000 O   0  0  0  0  0  0  0  0  0  0  0  0
    0.0000    0.0000    0.0000 N   0  0  0  0  0  0  0  0  0  0  0  0
    0.0000    0.0000    0.0000 C   0  0  0  0  0  0  0  0  0  0  0  0
    0.0000    0.0000    0.0000 O   0  0  0  0  0  0  0  0  0  0  0  0
    0.0000    0.0000    0.0000 C   0  0  0  0  0  0  0  0  0  0  0  0
    0.0000    0.0000    0.0000 C   0  0  0  0  0  0  0  0  0  0  0  0
    0.0000    0.0000    0.0000 C   0  0  0  0  0  0  0  0  0  0  0  0
    0.0000    0.0000    0.0000 C   0  0  0  0  0  0  0  0  0  0  0  0
    0.0000    0.0000    0.0000 C   0  0  0  0  0  0  0  0  0  0  0  0
    0.0000    0.0000    0.0000 C   0  0  0  0  0  0  0  0  0  0  0  0
    0.0000    0.0000    0.0000 C   0  0  0  0  0  0  0  0  0  0  0  0
    0.0000    0.0000    0.0000 C   0  0  0  0  0  0  0  0  0  0  0  0
    0.0000    0.0000    0.0000 P   0  0  0  0  0  0  0  0  0  0  0  0
    0.0000    0.0000    0.0000 O   0  0  0  0  0  0  0  0  0  0  0  0
    0.0000    0.0000    0.0000 O   0  0  0  0  0  0  0  0  0  0  0  0
    0.0000    0.0000    0.0000 O   0  0  0  0  0  0  0  0  0  0  0  0
    0.0000    0.0000    0.0000 N   0  0  0  0  0  0  0  0  0  0  0  0
    0.0000    0.0000    0.0000 C   0  0  0  0  0  0  0  0  0  0  0  0
    0.0000    0.0000    0.0000 O   0  0  0  0  0  0  0  0  0  0  0  0
    0.0000    0.0000    0.0000 C   0  0  0  0  0  0  0  0  0  0  0  0
    0.0000    0.0000    0.0000 C   0  0  0  0  0  0  0  0  0  0  0  0
    0.0000    0.0000    0.0000 O   0  0  0  0  0  0  0  0  0  0  0  0
    0.0000    0.0000    0.0000 N   0  0  0  0  0  0  0  0  0  0  0  0
    0.0000    0.0000    0.0000 C   0  0  0  0  0  0  0  0  0  0  0  0
    0.0000    0.0000    0.0000 C   0  0  0  0  0  0  0  0  0  0  0  0
    0.0000    0.0000    0.0000 C   0  0  0  0  0  0  0  0  0  0  0  0
    0.0000    0.0000    0.0000 C   0  0  0  0  0  0  0  0  0  0  0  0
    0.0000    0.0000    0.0000 O   0  0  0  0  0  0  0  0  0  0  0  0
    0.0000    0.0000    0.0000 O   0  0  0  0  0  0  0  0  0  0  0  0
    0.0000    0.0000    0.0000 C   0  0  0  0  0  0  0  0  0  0  0  0
    0.0000    0.0000    0.0000 O   0  0  0  0  0  0  0  0  0  0  0  0
    0.0000    0.0000    0.0000 O   0  0  0  0  0  0  0  0  0  0  0  0
  1  2  1  0
  2  3  1  0
  3  4  1  0
  3  5  1  0
  5  6  1  0
  6  7  1  0
  7  8  2  0
  7  9  1  0
  9 10  1  0
 10 11  1  0
 11 12  1  0
 12 13  2  0
 12 14  1  0
  9 15  1  0
 15 16  1  0
 16 17  2  0
 16 18  1  0
 18 19  1  0
 19 20  1  0
 20 21  1  0
 21 22  2  0
 21 23  1  0
 18 24  1  0
 24 25  1  0
 25 26  2  0
 25 27  1  0
 27 28  1  0
 28 29  1  0
 29 30  2  0
 30 31  1  0
 31 32  2  0
 32 33  1  0
 33 34  2  0
 32 35  1  0
 35 36  2  0
 35 37  1  0
 35 38  1  0
 27 39  1  0
 39 40  1  0
 40 41  2  0
 40 42  1  0
  5 43  1  0
 43 44  2  0
 43 45  1  0
 45 46  1  0
 46 47  1  0
 47 48  1  0
 48 49  1  0
 49 50  2  0
 49 51  1  0
 46 52  1  0
 52 53  2  0
 52 54  1  0
 34 29  1  0
M  END
>  <pIC50>  (13) 
4.66

>  <ChEMBL_ID>  (13) 
CHEMBL56697

>  <document_journal>  (13) 
Bioorg. Med. Chem. Lett.

>  <bao_endpoint>  (13) 
BAO_0000190

>  <potential_duplicate>  (13) 
False

>  <uo_units>  (13) 
UO_0000065

>  <canonical_smiles>  (13) 
CC[C@H](C)[C@H](NC(=O)[C@H](CCC(=O)O)NC(=O)[C@H](CCC(=O)O)NC(=O)[C@H](Cc1ccc(cc1)P(=O)(O)O)NC(=O)C)C(=O)N[C@@H](CCC(=O)O)C(=O)O

>  <parent_molecule_chembl_id>  (13) 
CHEMBL56697

>  <assay_type>  (13) 
B

>  <src_id>  (13) 
1

>  <ligand_efficiency>  (13) 
{u'le': u'0.12', u'bei': u'5.91', u'sei': u'1.29', u'lle': u'6.02'}

>  <standard_flag>  (13) 
True

>  <molecule_chembl_id>  (13) 
CHEMBL56697

>  <target_organism>  (13) 
Homo sapiens

>  <standard_units>  (13) 
nM

>  <record_id>  (13) 
97225

>  <document_chembl_id>  (13) 
CHEMBL1130490

>  <bao_format>  (13) 
BAO_0000357

>  <data_validity_description>  (13) 
None

>  <activity_id>  (13) 
179129

>  <standard_type>  (13) 
IC50

>  <target_chembl_id>  (13) 
CHEMBL1862

>  <data_validity_comment>  (13) 
None

>  <published_value>  (13) 
22

>  <document_year>  (13) 
1997

>  <target_pref_name>  (13) 
Tyrosine-protein kinase ABL

>  <assay_chembl_id>  (13) 
CHEMBL806527

>  <standard_relation>  (13) 
=

>  <assay_description>  (13) 
Radioligand displacement assay for the binding of [125I]Glu-Pro-Gln-pTyr-Glu-Glu-Ile-Pro-Ile-Tyr-Leu to ABL SH2 domain

>  <published_relation>  (13) 
=

>  <standard_value>  (13) 
22000

>  <qudt_units>  (13) 
http://www.openphacts.org/units/Nanomolar

>  <target_tax_id>  (13) 
9606

>  <bao_label>  (13) 
single protein format

>  <published_units>  (13) 
uM

>  <pchembl_value>  (13) 
4.66

>  <published_type>  (13) 
IC50

>  <activity_comment>  (13) 
None

$$$$

     RDKit          

 55 55  0  0  0  0  0  0  0  0999 V2000
    0.0000    0.0000    0.0000 C   0  0  0  0  0  0  0  0  0  0  0  0
    0.0000    0.0000    0.0000 C   0  0  0  0  0  0  0  0  0  0  0  0
    0.0000    0.0000    0.0000 C   0  0  0  0  0  0  0  0  0  0  0  0
    0.0000    0.0000    0.0000 C   0  0  0  0  0  0  0  0  0  0  0  0
    0.0000    0.0000    0.0000 C   0  0  0  0  0  0  0  0  0  0  0  0
    0.0000    0.0000    0.0000 N   0  0  0  0  0  0  0  0  0  0  0  0
    0.0000    0.0000    0.0000 C   0  0  0  0  0  0  0  0  0  0  0  0
    0.0000    0.0000    0.0000 O   0  0  0  0  0  0  0  0  0  0  0  0
    0.0000    0.0000    0.0000 C   0  0  0  0  0  0  0  0  0  0  0  0
    0.0000    0.0000    0.0000 C   0  0  0  0  0  0  0  0  0  0  0  0
    0.0000    0.0000    0.0000 C   0  0  0  0  0  0  0  0  0  0  0  0
    0.0000    0.0000    0.0000 C   0  0  0  0  0  0  0  0  0  0  0  0
    0.0000    0.0000    0.0000 O   0  0  0  0  0  0  0  0  0  0  0  0
    0.0000    0.0000    0.0000 O   0  0  0  0  0  0  0  0  0  0  0  0
    0.0000    0.0000    0.0000 N   0  0  0  0  0  0  0  0  0  0  0  0
    0.0000    0.0000    0.0000 C   0  0  0  0  0  0  0  0  0  0  0  0
    0.0000    0.0000    0.0000 O   0  0  0  0  0  0  0  0  0  0  0  0
    0.0000    0.0000    0.0000 C   0  0  0  0  0  0  0  0  0  0  0  0
    0.0000    0.0000    0.0000 C   0  0  0  0  0  0  0  0  0  0  0  0
    0.0000    0.0000    0.0000 C   0  0  0  0  0  0  0  0  0  0  0  0
    0.0000    0.0000    0.0000 C   0  0  0  0  0  0  0  0  0  0  0  0
    0.0000    0.0000    0.0000 O   0  0  0  0  0  0  0  0  0  0  0  0
    0.0000    0.0000    0.0000 O   0  0  0  0  0  0  0  0  0  0  0  0
    0.0000    0.0000    0.0000 N   0  0  0  0  0  0  0  0  0  0  0  0
    0.0000    0.0000    0.0000 C   0  0  0  0  0  0  0  0  0  0  0  0
    0.0000    0.0000    0.0000 O   0  0  0  0  0  0  0  0  0  0  0  0
    0.0000    0.0000    0.0000 C   0  0  0  0  0  0  0  0  0  0  0  0
    0.0000    0.0000    0.0000 C   0  0  0  0  0  0  0  0  0  0  0  0
    0.0000    0.0000    0.0000 C   0  0  0  0  0  0  0  0  0  0  0  0
    0.0000    0.0000    0.0000 C   0  0  0  0  0  0  0  0  0  0  0  0
    0.0000    0.0000    0.0000 C   0  0  0  0  0  0  0  0  0  0  0  0
    0.0000    0.0000    0.0000 C   0  0  0  0  0  0  0  0  0  0  0  0
    0.0000    0.0000    0.0000 O   0  0  0  0  0  0  0  0  0  0  0  0
    0.0000    0.0000    0.0000 P   0  0  0  0  0  0  0  0  0  0  0  0
    0.0000    0.0000    0.0000 O   0  0  0  0  0  0  0  0  0  0  0  0
    0.0000    0.0000    0.0000 O   0  0  0  0  0  0  0  0  0  0  0  0
    0.0000    0.0000    0.0000 O   0  0  0  0  0  0  0  0  0  0  0  0
    0.0000    0.0000    0.0000 C   0  0  0  0  0  0  0  0  0  0  0  0
    0.0000    0.0000    0.0000 C   0  0  0  0  0  0  0  0  0  0  0  0
    0.0000    0.0000    0.0000 N   0  0  0  0  0  0  0  0  0  0  0  0
    0.0000    0.0000    0.0000 C   0  0  0  0  0  0  0  0  0  0  0  0
    0.0000    0.0000    0.0000 O   0  0  0  0  0  0  0  0  0  0  0  0
    0.0000    0.0000    0.0000 C   0  0  0  0  0  0  0  0  0  0  0  0
    0.0000    0.0000    0.0000 C   0  0  0  0  0  0  0  0  0  0  0  0
    0.0000    0.0000    0.0000 O   0  0  0  0  0  0  0  0  0  0  0  0
    0.0000    0.0000    0.0000 N   0  0  0  0  0  0  0  0  0  0  0  0
    0.0000    0.0000    0.0000 C   0  0  0  0  0  0  0  0  0  0  0  0
    0.0000    0.0000    0.0000 C   0  0  0  0  0  0  0  0  0  0  0  0
    0.0000    0.0000    0.0000 C   0  0  0  0  0  0  0  0  0  0  0  0
    0.0000    0.0000    0.0000 C   0  0  0  0  0  0  0  0  0  0  0  0
    0.0000    0.0000    0.0000 O   0  0  0  0  0  0  0  0  0  0  0  0
    0.0000    0.0000    0.0000 O   0  0  0  0  0  0  0  0  0  0  0  0
    0.0000    0.0000    0.0000 C   0  0  0  0  0  0  0  0  0  0  0  0
    0.0000    0.0000    0.0000 O   0  0  0  0  0  0  0  0  0  0  0  0
    0.0000    0.0000    0.0000 O   0  0  0  0  0  0  0  0  0  0  0  0
  1  2  1  0
  2  3  1  0
  3  4  1  0
  3  5  1  0
  5  6  1  0
  6  7  1  0
  7  8  2  0
  7  9  1  0
  9 10  1  0
 10 11  1  0
 11 12  1  0
 12 13  2  0
 12 14  1  0
  9 15  1  0
 15 16  1  0
 16 17  2  0
 16 18  1  0
 18 19  1  0
 19 20  1  0
 20 21  1  0
 21 22  2  0
 21 23  1  0
 18 24  1  0
 24 25  1  0
 25 26  2  0
 25 27  1  0
 27 28  1  0
 28 29  1  0
 29 30  2  0
 30 31  1  0
 31 32  2  0
 32 33  1  0
 33 34  1  0
 34 35  2  0
 34 36  1  0
 34 37  1  0
 32 38  1  0
 38 39  2  0
 27 40  1  0
 40 41  1  0
 41 42  2  0
 41 43  1  0
  5 44  1  0
 44 45  2  0
 44 46  1  0
 46 47  1  0
 47 48  1  0
 48 49  1  0
 49 50  1  0
 50 51  2  0
 50 52  1  0
 47 53  1  0
 53 54  2  0
 53 55  1  0
 39 29  1  0
M  END
>  <pIC50>  (14) 
4.82

>  <ChEMBL_ID>  (14) 
CHEMBL328907

>  <document_journal>  (14) 
Bioorg. Med. Chem. Lett.

>  <bao_endpoint>  (14) 
BAO_0000190

>  <potential_duplicate>  (14) 
False

>  <uo_units>  (14) 
UO_0000065

>  <canonical_smiles>  (14) 
CC[C@H](C)[C@H](NC(=O)[C@H](CCC(=O)O)NC(=O)[C@H](CCC(=O)O)NC(=O)[C@@H](Cc1ccc(OP(=O)(O)O)cc1)NC(=O)C)C(=O)N[C@@H](CCC(=O)O)C(=O)O

>  <parent_molecule_chembl_id>  (14) 
CHEMBL328907

>  <assay_type>  (14) 
B

>  <src_id>  (14) 
1

>  <ligand_efficiency>  (14) 
{u'le': u'0.12', u'bei': u'5.99', u'sei': u'1.3', u'lle': u'5.84'}

>  <standard_flag>  (14) 
True

>  <molecule_chembl_id>  (14) 
CHEMBL328907

>  <target_organism>  (14) 
Homo sapiens

>  <standard_units>  (14) 
nM

>  <record_id>  (14) 
24776

>  <document_chembl_id>  (14) 
CHEMBL1129087

>  <bao_format>  (14) 
BAO_0000357

>  <data_validity_description>  (14) 
None

>  <activity_id>  (14) 
185461

>  <standard_type>  (14) 
IC50

>  <target_chembl_id>  (14) 
CHEMBL1862

>  <data_validity_comment>  (14) 
None

>  <published_value>  (14) 
15.3

>  <document_year>  (14) 
1996

>  <target_pref_name>  (14) 
Tyrosine-protein kinase ABL

>  <assay_chembl_id>  (14) 
CHEMBL762579

>  <standard_relation>  (14) 
=

>  <assay_description>  (14) 
Inhibition of Abl SH2 domain binding PDGF receptor

>  <published_relation>  (14) 
=

>  <standard_value>  (14) 
15300

>  <qudt_units>  (14) 
http://www.openphacts.org/units/Nanomolar

>  <target_tax_id>  (14) 
9606

>  <bao_label>  (14) 
single protein format

>  <published_units>  (14) 
uM

>  <pchembl_value>  (14) 
4.82

>  <published_type>  (14) 
IC50

>  <activity_comment>  (14) 
None

$$$$

     RDKit          

 27 28  0  0  0  0  0  0  0  0999 V2000
    0.0000    0.0000    0.0000 C   0  0  0  0  0  0  0  0  0  0  0  0
    0.0000    0.0000    0.0000 N   0  0  0  0  0  0  0  0  0  0  0  0
    0.0000    0.0000    0.0000 C   0  0  0  0  0  0  0  0  0  0  0  0
    0.0000    0.0000    0.0000 C   0  0  0  0  0  0  0  0  0  0  0  0
    0.0000    0.0000    0.0000 C   0  0  0  0  0  0  0  0  0  0  0  0
    0.0000    0.0000    0.0000 C   0  0  0  0  0  0  0  0  0  0  0  0
    0.0000    0.0000    0.0000 C   0  0  0  0  0  0  0  0  0  0  0  0
    0.0000    0.0000    0.0000 O   0  0  0  0  0  0  0  0  0  0  0  0
    0.0000    0.0000    0.0000 C   0  0  0  0  0  0  0  0  0  0  0  0
    0.0000    0.0000    0.0000 C   0  0  0  0  0  0  0  0  0  0  0  0
    0.0000    0.0000    0.0000 C   0  0  0  0  0  0  0  0  0  0  0  0
    0.0000    0.0000    0.0000 C   0  0  0  0  0  0  0  0  0  0  0  0
    0.0000    0.0000    0.0000 O   0  0  0  0  0  0  0  0  0  0  0  0
    0.0000    0.0000    0.0000 S   0  0  0  0  0  0  0  0  0  0  0  0
    0.0000    0.0000    0.0000 O   0  0  0  0  0  0  0  0  0  0  0  0
    0.0000    0.0000    0.0000 O   0  0  0  0  0  0  0  0  0  0  0  0
    0.0000    0.0000    0.0000 C   0  0  0  0  0  0  0  0  0  0  0  0
    0.0000    0.0000    0.0000 C   0  0  0  0  0  0  0  0  0  0  0  0
    0.0000    0.0000    0.0000 C   0  0  0  0  0  0  0  0  0  0  0  0
    0.0000    0.0000    0.0000 C   0  0  0  0  0  0  0  0  0  0  0  0
    0.0000    0.0000    0.0000 C   0  0  0  0  0  0  0  0  0  0  0  0
    0.0000    0.0000    0.0000 C   0  0  0  0  0  0  0  0  0  0  0  0
    0.0000    0.0000    0.0000 C   0  0  0  0  0  0  0  0  0  0  0  0
    0.0000    0.0000    0.0000 O   0  0  0  0  0  0  0  0  0  0  0  0
    0.0000    0.0000    0.0000 O   0  0  0  0  0  0  0  0  0  0  0  0
    0.0000    0.0000    0.0000 C   0  0  0  0  0  0  0  0  0  0  0  0
    0.0000    0.0000    0.0000 C   0  0  0  0  0  0  0  0  0  0  0  0
  1  2  1  0
  2  3  1  0
  2  4  1  0
  4  5  1  0
  5  6  2  0
  5  7  1  0
  7  8  2  0
  7  9  1  0
  9 10  2  0
 10 11  1  0
 11 12  2  0
 12 13  1  0
 13 14  1  0
 14 15  2  0
 14 16  2  0
 14 17  1  0
 17 18  2  0
 18 19  1  0
 19 20  2  0
 20 21  1  0
 21 22  2  0
 20 23  1  0
 23 24  2  0
 23 25  1  0
 12 26  1  0
 26 27  2  0
 27  9  1  0
 22 17  1  0
M  END
>  <pIC50>  (15) 
4.3

>  <ChEMBL_ID>  (15) 
CHEMBL80030

>  <document_journal>  (15) 
J. Med. Chem.

>  <bao_endpoint>  (15) 
BAO_0000190

>  <potential_duplicate>  (15) 
False

>  <uo_units>  (15) 
UO_0000065

>  <canonical_smiles>  (15) 
CN(C)CC(=C)C(=O)c1ccc(OS(=O)(=O)c2ccc(cc2)C(=O)O)cc1

>  <parent_molecule_chembl_id>  (15) 
CHEMBL80030

>  <assay_type>  (15) 
B

>  <src_id>  (15) 
1

>  <ligand_efficiency>  (15) 
{u'le': u'0.22', u'bei': u'11.04', u'sei': u'3.93', u'lle': u'4.27'}

>  <standard_flag>  (15) 
True

>  <molecule_chembl_id>  (15) 
CHEMBL80030

>  <target_organism>  (15) 
Homo sapiens

>  <standard_units>  (15) 
nM

>  <record_id>  (15) 
145235

>  <document_chembl_id>  (15) 
CHEMBL1128740

>  <bao_format>  (15) 
BAO_0000249

>  <data_validity_description>  (15) 
None

>  <activity_id>  (15) 
607987

>  <standard_type>  (15) 
IC50

>  <target_chembl_id>  (15) 
CHEMBL1862

>  <data_validity_comment>  (15) 
None

>  <published_value>  (15) 
50

>  <document_year>  (15) 
1995

>  <target_pref_name>  (15) 
Tyrosine-protein kinase ABL

>  <assay_chembl_id>  (15) 
CHEMBL847372

>  <standard_relation>  (15) 
=

>  <assay_description>  (15) 
In vitro inhibition of the v-abl tyrosine kinase activity in A431 membranes using angiotensin II as phosphate acceptor as substrate

>  <published_relation>  (15) 
=

>  <standard_value>  (15) 
50000

>  <qudt_units>  (15) 
http://www.openphacts.org/units/Nanomolar

>  <target_tax_id>  (15) 
9606

>  <bao_label>  (15) 
cell membrane format

>  <published_units>  (15) 
uM

>  <pchembl_value>  (15) 
4.3

>  <published_type>  (15) 
IC50

>  <activity_comment>  (15) 
None

$$$$

     RDKit          

 20 22  0  0  0  0  0  0  0  0999 V2000
    0.0000    0.0000    0.0000 O   0  0  0  0  0  0  0  0  0  0  0  0
    0.0000    0.0000    0.0000 C   0  0  0  0  0  0  0  0  0  0  0  0
    0.0000    0.0000    0.0000 C   0  0  0  0  0  0  0  0  0  0  0  0
    0.0000    0.0000    0.0000 C   0  0  0  0  0  0  0  0  0  0  0  0
    0.0000    0.0000    0.0000 C   0  0  0  0  0  0  0  0  0  0  0  0
    0.0000    0.0000    0.0000 C   0  0  0  0  0  0  0  0  0  0  0  0
    0.0000    0.0000    0.0000 C   0  0  0  0  0  0  0  0  0  0  0  0
    0.0000    0.0000    0.0000 C   0  0  0  0  0  0  0  0  0  0  0  0
    0.0000    0.0000    0.0000 C   0  0  0  0  0  0  0  0  0  0  0  0
    0.0000    0.0000    0.0000 O   0  0  0  0  0  0  0  0  0  0  0  0
    0.0000    0.0000    0.0000 C   0  0  0  0  0  0  0  0  0  0  0  0
    0.0000    0.0000    0.0000 C   0  0  0  0  0  0  0  0  0  0  0  0
    0.0000    0.0000    0.0000 C   0  0  0  0  0  0  0  0  0  0  0  0
    0.0000    0.0000    0.0000 O   0  0  0  0  0  0  0  0  0  0  0  0
    0.0000    0.0000    0.0000 C   0  0  0  0  0  0  0  0  0  0  0  0
    0.0000    0.0000    0.0000 C   0  0  0  0  0  0  0  0  0  0  0  0
    0.0000    0.0000    0.0000 O   0  0  0  0  0  0  0  0  0  0  0  0
    0.0000    0.0000    0.0000 C   0  0  0  0  0  0  0  0  0  0  0  0
    0.0000    0.0000    0.0000 C   0  0  0  0  0  0  0  0  0  0  0  0
    0.0000    0.0000    0.0000 O   0  0  0  0  0  0  0  0  0  0  0  0
  1  2  1  0
  2  3  2  0
  3  4  1  0
  4  5  2  0
  5  6  1  0
  6  7  2  0
  5  8  1  0
  8  9  2  0
  9 10  1  0
 10 11  1  0
 11 12  2  0
 12 13  1  0
 13 14  1  0
 13 15  2  0
 15 16  1  0
 16 17  1  0
 16 18  2  0
 18 19  1  0
 19 20  2  0
  7  2  1  0
 19  8  1  0
 18 11  1  0
M  END
>  <pIC50>  (16) 
5.0

>  <ChEMBL_ID>  (16) 
CHEMBL44

>  <document_journal>  (16) 
J. Med. Chem.

>  <bao_endpoint>  (16) 
BAO_0000190

>  <potential_duplicate>  (16) 
False

>  <uo_units>  (16) 
UO_0000065

>  <canonical_smiles>  (16) 
Oc1ccc(cc1)C2=COc3cc(O)cc(O)c3C2=O

>  <parent_molecule_chembl_id>  (16) 
CHEMBL44

>  <assay_type>  (16) 
B

>  <src_id>  (16) 
1

>  <ligand_efficiency>  (16) 
{u'le': u'0.34', u'bei': u'18.5', u'sei': u'5.75', u'lle': u'2.86'}

>  <standard_flag>  (16) 
True

>  <molecule_chembl_id>  (16) 
CHEMBL44

>  <target_organism>  (16) 
Homo sapiens

>  <standard_units>  (16) 
nM

>  <record_id>  (16) 
145227

>  <document_chembl_id>  (16) 
CHEMBL1128740

>  <bao_format>  (16) 
BAO_0000249

>  <data_validity_description>  (16) 
None

>  <activity_id>  (16) 
609242

>  <standard_type>  (16) 
IC50

>  <target_chembl_id>  (16) 
CHEMBL1862

>  <data_validity_comment>  (16) 
None

>  <published_value>  (16) 
10

>  <document_year>  (16) 
1995

>  <target_pref_name>  (16) 
Tyrosine-protein kinase ABL

>  <assay_chembl_id>  (16) 
CHEMBL847372

>  <standard_relation>  (16) 
=

>  <assay_description>  (16) 
In vitro inhibition of the v-abl tyrosine kinase activity in A431 membranes using angiotensin II as phosphate acceptor as substrate

>  <published_relation>  (16) 
=

>  <standard_value>  (16) 
10000

>  <qudt_units>  (16) 
http://www.openphacts.org/units/Nanomolar

>  <target_tax_id>  (16) 
9606

>  <bao_label>  (16) 
cell membrane format

>  <published_units>  (16) 
uM

>  <pchembl_value>  (16) 
5

>  <published_type>  (16) 
IC50

>  <activity_comment>  (16) 
None

$$$$

     RDKit          

 29 30  0  0  0  0  0  0  0  0999 V2000
    0.0000    0.0000    0.0000 C   0  0  0  0  0  0  0  0  0  0  0  0
    0.0000    0.0000    0.0000 N   0  0  0  0  0  0  0  0  0  0  0  0
    0.0000    0.0000    0.0000 C   0  0  0  0  0  0  0  0  0  0  0  0
    0.0000    0.0000    0.0000 C   0  0  0  0  0  0  0  0  0  0  0  0
    0.0000    0.0000    0.0000 C   0  0  0  0  0  0  0  0  0  0  0  0
    0.0000    0.0000    0.0000 C   0  0  0  0  0  0  0  0  0  0  0  0
    0.0000    0.0000    0.0000 C   0  0  0  0  0  0  0  0  0  0  0  0
    0.0000    0.0000    0.0000 O   0  0  0  0  0  0  0  0  0  0  0  0
    0.0000    0.0000    0.0000 C   0  0  0  0  0  0  0  0  0  0  0  0
    0.0000    0.0000    0.0000 C   0  0  0  0  0  0  0  0  0  0  0  0
    0.0000    0.0000    0.0000 C   0  0  0  0  0  0  0  0  0  0  0  0
    0.0000    0.0000    0.0000 C   0  0  0  0  0  0  0  0  0  0  0  0
    0.0000    0.0000    0.0000 O   0  0  0  0  0  0  0  0  0  0  0  0
    0.0000    0.0000    0.0000 S   0  0  0  0  0  0  0  0  0  0  0  0
    0.0000    0.0000    0.0000 O   0  0  0  0  0  0  0  0  0  0  0  0
    0.0000    0.0000    0.0000 O   0  0  0  0  0  0  0  0  0  0  0  0
    0.0000    0.0000    0.0000 C   0  0  0  0  0  0  0  0  0  0  0  0
    0.0000    0.0000    0.0000 C   0  0  0  0  0  0  0  0  0  0  0  0
    0.0000    0.0000    0.0000 C   0  0  0  0  0  0  0  0  0  0  0  0
    0.0000    0.0000    0.0000 C   0  0  0  0  0  0  0  0  0  0  0  0
    0.0000    0.0000    0.0000 C   0  0  0  0  0  0  0  0  0  0  0  0
    0.0000    0.0000    0.0000 C   0  0  0  0  0  0  0  0  0  0  0  0
    0.0000    0.0000    0.0000 C   0  0  0  0  0  0  0  0  0  0  0  0
    0.0000    0.0000    0.0000 O   0  0  0  0  0  0  0  0  0  0  0  0
    0.0000    0.0000    0.0000 N   0  0  0  0  0  0  0  0  0  0  0  0
    0.0000    0.0000    0.0000 C   0  0  0  0  0  0  0  0  0  0  0  0
    0.0000    0.0000    0.0000 C   0  0  0  0  0  0  0  0  0  0  0  0
    0.0000    0.0000    0.0000 C   0  0  0  0  0  0  0  0  0  0  0  0
    0.0000    0.0000    0.0000 C   0  0  0  0  0  0  0  0  0  0  0  0
  1  2  1  0
  2  3  1  0
  2  4  1  0
  4  5  1  0
  5  6  2  0
  5  7  1  0
  7  8  2  0
  7  9  1  0
  9 10  2  0
 10 11  1  0
 11 12  2  0
 12 13  1  0
 13 14  1  0
 14 15  2  0
 14 16  2  0
 14 17  1  0
 17 18  2  0
 18 19  1  0
 19 20  2  0
 20 21  1  0
 21 22  2  0
 20 23  1  0
 23 24  2  0
 23 25  1  0
 25 26  1  0
 25 27  1  0
 12 28  1  0
 28 29  2  0
 29  9  1  0
 22 17  1  0
M  END
>  <pIC50>  (17) 
4.16

>  <ChEMBL_ID>  (17) 
CHEMBL552634

>  <document_journal>  (17) 
J. Med. Chem.

>  <bao_endpoint>  (17) 
BAO_0000190

>  <potential_duplicate>  (17) 
False

>  <uo_units>  (17) 
UO_0000065

>  <canonical_smiles>  (17) 
Cl.CN(C)CC(=C)C(=O)c1ccc(OS(=O)(=O)c2ccc(cc2)C(=O)N(C)C)cc1

>  <parent_molecule_chembl_id>  (17) 
CHEMBL1194428

>  <assay_type>  (17) 
B

>  <src_id>  (17) 
1

>  <ligand_efficiency>  (17) 
{u'le': u'0.2', u'bei': u'9.98', u'sei': u'4.5', u'lle': u'1.3'}

>  <standard_flag>  (17) 
True

>  <molecule_chembl_id>  (17) 
CHEMBL552634

>  <target_organism>  (17) 
Homo sapiens

>  <standard_units>  (17) 
nM

>  <record_id>  (17) 
145233

>  <document_chembl_id>  (17) 
CHEMBL1128740

>  <bao_format>  (17) 
BAO_0000249

>  <data_validity_description>  (17) 
None

>  <activity_id>  (17) 
625579

>  <standard_type>  (17) 
IC50

>  <target_chembl_id>  (17) 
CHEMBL1862

>  <data_validity_comment>  (17) 
None

>  <published_value>  (17) 
70

>  <document_year>  (17) 
1995

>  <target_pref_name>  (17) 
Tyrosine-protein kinase ABL

>  <assay_chembl_id>  (17) 
CHEMBL847372

>  <standard_relation>  (17) 
=

>  <assay_description>  (17) 
In vitro inhibition of the v-abl tyrosine kinase activity in A431 membranes using angiotensin II as phosphate acceptor as substrate

>  <published_relation>  (17) 
=

>  <standard_value>  (17) 
70000

>  <qudt_units>  (17) 
http://www.openphacts.org/units/Nanomolar

>  <target_tax_id>  (17) 
9606

>  <bao_label>  (17) 
cell membrane format

>  <published_units>  (17) 
uM

>  <pchembl_value>  (17) 
4.16

>  <published_type>  (17) 
IC50

>  <activity_comment>  (17) 
None

$$$$

     RDKit          

 31 35  0  0  0  0  0  0  0  0999 V2000
    0.0000    0.0000    0.0000 C   0  0  0  0  0  0  0  0  0  0  0  0
    0.0000    0.0000    0.0000 N   0  0  0  0  0  0  0  0  0  0  0  0
    0.0000    0.0000    0.0000 C   0  0  0  0  0  0  0  0  0  0  0  0
    0.0000    0.0000    0.0000 C   0  0  0  0  0  0  0  0  0  0  0  0
    0.0000    0.0000    0.0000 N   0  0  0  0  0  0  0  0  0  0  0  0
    0.0000    0.0000    0.0000 C   0  0  0  0  0  0  0  0  0  0  0  0
    0.0000    0.0000    0.0000 C   0  0  0  0  0  0  0  0  0  0  0  0
    0.0000    0.0000    0.0000 N   0  0  0  0  0  0  0  0  0  0  0  0
    0.0000    0.0000    0.0000 C   0  0  0  0  0  0  0  0  0  0  0  0
    0.0000    0.0000    0.0000 O   0  0  0  0  0  0  0  0  0  0  0  0
    0.0000    0.0000    0.0000 N   0  0  0  0  0  0  0  0  0  0  0  0
    0.0000    0.0000    0.0000 C   0  0  0  0  0  0  0  0  0  0  0  0
    0.0000    0.0000    0.0000 C   0  0  0  0  0  0  0  0  0  0  0  0
    0.0000    0.0000    0.0000 C   0  0  0  0  0  0  0  0  0  0  0  0
    0.0000    0.0000    0.0000 C   0  0  0  0  0  0  0  0  0  0  0  0
    0.0000    0.0000    0.0000 C   0  0  0  0  0  0  0  0  0  0  0  0
    0.0000    0.0000    0.0000 C   0  0  0  0  0  0  0  0  0  0  0  0
    0.0000    0.0000    0.0000 N   0  0  0  0  0  0  0  0  0  0  0  0
    0.0000    0.0000    0.0000 N   0  0  0  0  0  0  0  0  0  0  0  0
    0.0000    0.0000    0.0000 C   0  0  0  0  0  0  0  0  0  0  0  0
    0.0000    0.0000    0.0000 C   0  0  0  0  0  0  0  0  0  0  0  0
    0.0000    0.0000    0.0000 S   0  0  0  0  0  0  0  0  0  0  0  0
    0.0000    0.0000    0.0000 C   0  0  0  0  0  0  0  0  0  0  0  0
    0.0000    0.0000    0.0000 C   0  0  0  0  0  0  0  0  0  0  0  0
    0.0000    0.0000    0.0000 N   0  0  0  0  0  0  0  0  0  0  0  0
    0.0000    0.0000    0.0000 C   0  0  0  0  0  0  0  0  0  0  0  0
    0.0000    0.0000    0.0000 C   0  0  0  0  0  0  0  0  0  0  0  0
    0.0000    0.0000    0.0000 C   0  0  0  0  0  0  0  0  0  0  0  0
    0.0000    0.0000    0.0000 C   0  0  0  0  0  0  0  0  0  0  0  0
    0.0000    0.0000    0.0000 O   0  0  0  0  0  0  0  0  0  0  0  0
    0.0000    0.0000    0.0000 C   0  0  0  0  0  0  0  0  0  0  0  0
  1  2  1  0
  2  3  1  0
  3  4  1  0
  4  5  1  0
  5  6  1  0
  6  7  1  0
  5  8  1  0
  8  9  1  0
  9 10  2  0
  9 11  1  0
 11 12  1  0
 12 13  2  0
 13 14  1  0
 14 15  2  0
 15 16  1  0
 16 17  1  0
 17 18  2  0
 18 19  1  0
 19 20  1  0
 20 21  1  0
 21 22  1  0
 22 23  1  0
 23 24  1  0
 23 25  2  0
 25 26  1  0
 26 27  1  0
 20 28  2  0
 28 29  1  0
 29 30  2  0
 29 31  1  0
  7  2  1  0
 31 12  1  0
 31 16  2  0
 28 17  1  0
 26 21  2  0
M  END
>  <pIC50>  (18) 
4.75

>  <ChEMBL_ID>  (18) 
CHEMBL325023

>  <document_journal>  (18) 
Bioorg. Med. Chem. Lett.

>  <bao_endpoint>  (18) 
BAO_0000190

>  <potential_duplicate>  (18) 
False

>  <uo_units>  (18) 
UO_0000065

>  <canonical_smiles>  (18) 
CN1CCN(CC1)NC(=O)Nc2cccc3c4n[nH]c(c5sc(C)nc5C)c4C(=O)c23

>  <parent_molecule_chembl_id>  (18) 
CHEMBL325023

>  <assay_type>  (18) 
B

>  <src_id>  (18) 
1

>  <ligand_efficiency>  (18) 
{u'le': u'0.21', u'bei': u'10.87', u'sei': u'3.54', u'lle': u'3.07'}

>  <standard_flag>  (18) 
True

>  <molecule_chembl_id>  (18) 
CHEMBL325023

>  <target_organism>  (18) 
Homo sapiens

>  <standard_units>  (18) 
nM

>  <record_id>  (18) 
219904

>  <document_chembl_id>  (18) 
CHEMBL1146824

>  <bao_format>  (18) 
BAO_0000357

>  <data_validity_description>  (18) 
None

>  <activity_id>  (18) 
703630

>  <standard_type>  (18) 
IC50

>  <target_chembl_id>  (18) 
CHEMBL1862

>  <data_validity_comment>  (18) 
None

>  <published_value>  (18) 
17600

>  <document_year>  (18) 
2004

>  <target_pref_name>  (18) 
Tyrosine-protein kinase ABL

>  <assay_chembl_id>  (18) 
CHEMBL819333

>  <standard_relation>  (18) 
=

>  <assay_description>  (18) 
Inhibition of c-Abl tyrosine kinase

>  <published_relation>  (18) 
=

>  <standard_value>  (18) 
17600

>  <qudt_units>  (18) 
http://www.openphacts.org/units/Nanomolar

>  <target_tax_id>  (18) 
9606

>  <bao_label>  (18) 
single protein format

>  <published_units>  (18) 
nM

>  <pchembl_value>  (18) 
4.75

>  <published_type>  (18) 
IC50

>  <activity_comment>  (18) 
None

$$$$

     RDKit          

 22 24  0  0  0  0  0  0  0  0999 V2000
    0.0000    0.0000    0.0000 O   0  0  0  0  0  0  0  0  0  0  0  0
    0.0000    0.0000    0.0000 N   0  0  0  0  0  0  0  0  0  0  0  0
    0.0000    0.0000    0.0000 O   0  0  0  0  0  0  0  0  0  0  0  0
    0.0000    0.0000    0.0000 C   0  0  0  0  0  0  0  0  0  0  0  0
    0.0000    0.0000    0.0000 C   0  0  0  0  0  0  0  0  0  0  0  0
    0.0000    0.0000    0.0000 C   0  0  0  0  0  0  0  0  0  0  0  0
    0.0000    0.0000    0.0000 C   0  0  0  0  0  0  0  0  0  0  0  0
    0.0000    0.0000    0.0000 C   0  0  0  0  0  0  0  0  0  0  0  0
    0.0000    0.0000    0.0000 N   0  0  0  0  0  0  0  0  0  0  0  0
    0.0000    0.0000    0.0000 C   0  0  0  0  0  0  0  0  0  0  0  0
    0.0000    0.0000    0.0000 N   0  0  0  0  0  0  0  0  0  0  0  0
    0.0000    0.0000    0.0000 C   0  0  0  0  0  0  0  0  0  0  0  0
    0.0000    0.0000    0.0000 C   0  0  0  0  0  0  0  0  0  0  0  0
    0.0000    0.0000    0.0000 C   0  0  0  0  0  0  0  0  0  0  0  0
    0.0000    0.0000    0.0000 N   0  0  0  0  0  0  0  0  0  0  0  0
    0.0000    0.0000    0.0000 C   0  0  0  0  0  0  0  0  0  0  0  0
    0.0000    0.0000    0.0000 C   0  0  0  0  0  0  0  0  0  0  0  0
    0.0000    0.0000    0.0000 C   0  0  0  0  0  0  0  0  0  0  0  0
    0.0000    0.0000    0.0000 C   0  0  0  0  0  0  0  0  0  0  0  0
    0.0000    0.0000    0.0000 C   0  0  0  0  0  0  0  0  0  0  0  0
    0.0000    0.0000    0.0000 N   0  0  0  0  0  0  0  0  0  0  0  0
    0.0000    0.0000    0.0000 C   0  0  0  0  0  0  0  0  0  0  0  0
  1  2  1  0
  2  3  2  0
  2  4  1  0
  4  5  2  0
  5  6  1  0
  6  7  2  0
  7  8  1  0
  8  9  1  0
  9 10  1  0
 10 11  2  0
 11 12  1  0
 12 13  2  0
 13 14  1  0
 14 15  2  0
 14 16  1  0
 16 17  2  0
 17 18  1  0
 18 19  2  0
 19 20  1  0
 20 21  2  0
  8 22  2  0
 22  4  1  0
 15 10  1  0
 21 16  1  0
M  CHG  2   1  -1   2   1
M  END
>  <pIC50>  (19) 
5.92

>  <ChEMBL_ID>  (19) 
CHEMBL60816

>  <document_journal>  (19) 
Bioorg. Med. Chem. Lett.

>  <bao_endpoint>  (19) 
BAO_0000190

>  <potential_duplicate>  (19) 
False

>  <uo_units>  (19) 
UO_0000065

>  <canonical_smiles>  (19) 
[O-][N+](=O)c1cccc(Nc2nccc(n2)c3ccccn3)c1

>  <parent_molecule_chembl_id>  (19) 
CHEMBL60816

>  <assay_type>  (19) 
B

>  <src_id>  (19) 
1

>  <ligand_efficiency>  (19) 
{u'le': u'0.37', u'bei': u'20.19', u'sei': u'6.13', u'lle': u'2.68'}

>  <standard_flag>  (19) 
True

>  <molecule_chembl_id>  (19) 
CHEMBL60816

>  <target_organism>  (19) 
Homo sapiens

>  <standard_units>  (19) 
nM

>  <record_id>  (19) 
97902

>  <document_chembl_id>  (19) 
CHEMBL1130562

>  <bao_format>  (19) 
BAO_0000357

>  <data_validity_description>  (19) 
None

>  <activity_id>  (19) 
905991

>  <standard_type>  (19) 
IC50

>  <target_chembl_id>  (19) 
CHEMBL1862

>  <data_validity_comment>  (19) 
None

>  <published_value>  (19) 
1.2

>  <document_year>  (19) 
1997

>  <target_pref_name>  (19) 
Tyrosine-protein kinase ABL

>  <assay_chembl_id>  (19) 
CHEMBL846547

>  <standard_relation>  (19) 
=

>  <assay_description>  (19) 
Inhibition of v-Abl tyrosine kinase.

>  <published_relation>  (19) 
=

>  <standard_value>  (19) 
1200

>  <qudt_units>  (19) 
http://www.openphacts.org/units/Nanomolar

>  <target_tax_id>  (19) 
9606

>  <bao_label>  (19) 
single protein format

>  <published_units>  (19) 
uM

>  <pchembl_value>  (19) 
5.92

>  <published_type>  (19) 
IC50

>  <activity_comment>  (19) 
None

$$$$

     RDKit          

 30 33  0  0  0  0  0  0  0  0999 V2000
    0.0000    0.0000    0.0000 C   0  0  0  0  0  0  0  0  0  0  0  0
    0.0000    0.0000    0.0000 C   0  0  0  0  0  0  0  0  0  0  0  0
    0.0000    0.0000    0.0000 C   0  0  0  0  0  0  0  0  0  0  0  0
    0.0000    0.0000    0.0000 C   0  0  0  0  0  0  0  0  0  0  0  0
    0.0000    0.0000    0.0000 C   0  0  0  0  0  0  0  0  0  0  0  0
    0.0000    0.0000    0.0000 C   0  0  0  0  0  0  0  0  0  0  0  0
    0.0000    0.0000    0.0000 C   0  0  0  0  0  0  0  0  0  0  0  0
    0.0000    0.0000    0.0000 C   0  0  0  0  0  0  0  0  0  0  0  0
    0.0000    0.0000    0.0000 O   0  0  0  0  0  0  0  0  0  0  0  0
    0.0000    0.0000    0.0000 N   0  0  0  0  0  0  0  0  0  0  0  0
    0.0000    0.0000    0.0000 C   0  0  0  0  0  0  0  0  0  0  0  0
    0.0000    0.0000    0.0000 C   0  0  0  0  0  0  0  0  0  0  0  0
    0.0000    0.0000    0.0000 C   0  0  0  0  0  0  0  0  0  0  0  0
    0.0000    0.0000    0.0000 C   0  0  0  0  0  0  0  0  0  0  0  0
    0.0000    0.0000    0.0000 C   0  0  0  0  0  0  0  0  0  0  0  0
    0.0000    0.0000    0.0000 C   0  0  0  0  0  0  0  0  0  0  0  0
    0.0000    0.0000    0.0000 N   0  0  0  0  0  0  0  0  0  0  0  0
    0.0000    0.0000    0.0000 C   0  0  0  0  0  0  0  0  0  0  0  0
    0.0000    0.0000    0.0000 N   0  0  0  0  0  0  0  0  0  0  0  0
    0.0000    0.0000    0.0000 C   0  0  0  0  0  0  0  0  0  0  0  0
    0.0000    0.0000    0.0000 C   0  0  0  0  0  0  0  0  0  0  0  0
    0.0000    0.0000    0.0000 C   0  0  0  0  0  0  0  0  0  0  0  0
    0.0000    0.0000    0.0000 N   0  0  0  0  0  0  0  0  0  0  0  0
    0.0000    0.0000    0.0000 C   0  0  0  0  0  0  0  0  0  0  0  0
    0.0000    0.0000    0.0000 C   0  0  0  0  0  0  0  0  0  0  0  0
    0.0000    0.0000    0.0000 C   0  0  0  0  0  0  0  0  0  0  0  0
    0.0000    0.0000    0.0000 C   0  0  0  0  0  0  0  0  0  0  0  0
    0.0000    0.0000    0.0000 N   0  0  0  0  0  0  0  0  0  0  0  0
    0.0000    0.0000    0.0000 C   0  0  0  0  0  0  0  0  0  0  0  0
    0.0000    0.0000    0.0000 C   0  0  0  0  0  0  0  0  0  0  0  0
  1  2  1  0
  2  3  2  0
  3  4  1  0
  4  5  2  0
  5  6  1  0
  6  7  2  0
  5  8  1  0
  8  9  2  0
  8 10  1  0
 10 11  1  0
 11 12  2  0
 12 13  1  0
 13 14  2  0
 14 15  1  0
 14 16  1  0
 16 17  1  0
 17 18  1  0
 18 19  2  0
 19 20  1  0
 20 21  2  0
 21 22  1  0
 22 23  2  0
 22 24  1  0
 24 25  2  0
 25 26  1  0
 26 27  2  0
 27 28  1  0
 28 29  2  0
 16 30  2  0
  7  2  1  0
 30 11  1  0
 23 18  1  0
 29 24  1  0
M  END
>  <pIC50>  (20) 
7.2

>  <ChEMBL_ID>  (20) 
CHEMBL20867

>  <document_journal>  (20) 
Bioorg. Med. Chem. Lett.

>  <bao_endpoint>  (20) 
BAO_0000190

>  <potential_duplicate>  (20) 
False

>  <uo_units>  (20) 
UO_0000065

>  <canonical_smiles>  (20) 
Cc1ccc(cc1)C(=O)Nc2ccc(C)c(Nc3nccc(n3)c4cccnc4)c2

>  <parent_molecule_chembl_id>  (20) 
CHEMBL20867

>  <assay_type>  (20) 
B

>  <src_id>  (20) 
1

>  <ligand_efficiency>  (20) 
{u'le': u'0.3', u'bei': u'16.94', u'sei': u'8.39', u'lle': u'2.02'}

>  <standard_flag>  (20) 
True

>  <molecule_chembl_id>  (20) 
CHEMBL20867

>  <target_organism>  (20) 
Homo sapiens

>  <standard_units>  (20) 
nM

>  <record_id>  (20) 
97896

>  <document_chembl_id>  (20) 
CHEMBL1130562

>  <bao_format>  (20) 
BAO_0000357

>  <data_validity_description>  (20) 
None

>  <activity_id>  (20) 
907474

>  <standard_type>  (20) 
IC50

>  <target_chembl_id>  (20) 
CHEMBL1862

>  <data_validity_comment>  (20) 
None

>  <published_value>  (20) 
0.2

>  <document_year>  (20) 
1997

>  <target_pref_name>  (20) 
Tyrosine-protein kinase ABL

>  <assay_chembl_id>  (20) 
CHEMBL846547

>  <standard_relation>  (20) 
=

>  <assay_description>  (20) 
Inhibition of v-Abl tyrosine kinase.

>  <published_relation>  (20) 
=

>  <standard_value>  (20) 
200

>  <qudt_units>  (20) 
http://www.openphacts.org/units/Nanomolar

>  <target_tax_id>  (20) 
9606

>  <bao_label>  (20) 
single protein format

>  <published_units>  (20) 
uM

>  <pchembl_value>  (20) 
6.7

>  <published_type>  (20) 
IC50

>  <activity_comment>  (20) 
None

$$$$

     RDKit          

 37 41  0  0  0  0  0  0  0  0999 V2000
    0.0000    0.0000    0.0000 C   0  0  0  0  0  0  0  0  0  0  0  0
    0.0000    0.0000    0.0000 N   0  0  0  0  0  0  0  0  0  0  0  0
    0.0000    0.0000    0.0000 C   0  0  0  0  0  0  0  0  0  0  0  0
    0.0000    0.0000    0.0000 C   0  0  0  0  0  0  0  0  0  0  0  0
    0.0000    0.0000    0.0000 N   0  0  0  0  0  0  0  0  0  0  0  0
    0.0000    0.0000    0.0000 C   0  0  0  0  0  0  0  0  0  0  0  0
    0.0000    0.0000    0.0000 C   0  0  0  0  0  0  0  0  0  0  0  0
    0.0000    0.0000    0.0000 C   0  0  0  0  0  0  0  0  0  0  0  0
    0.0000    0.0000    0.0000 C   0  0  0  0  0  0  0  0  0  0  0  0
    0.0000    0.0000    0.0000 C   0  0  0  0  0  0  0  0  0  0  0  0
    0.0000    0.0000    0.0000 C   0  0  0  0  0  0  0  0  0  0  0  0
    0.0000    0.0000    0.0000 C   0  0  0  0  0  0  0  0  0  0  0  0
    0.0000    0.0000    0.0000 C   0  0  0  0  0  0  0  0  0  0  0  0
    0.0000    0.0000    0.0000 O   0  0  0  0  0  0  0  0  0  0  0  0
    0.0000    0.0000    0.0000 N   0  0  0  0  0  0  0  0  0  0  0  0
    0.0000    0.0000    0.0000 C   0  0  0  0  0  0  0  0  0  0  0  0
    0.0000    0.0000    0.0000 C   0  0  0  0  0  0  0  0  0  0  0  0
    0.0000    0.0000    0.0000 C   0  0  0  0  0  0  0  0  0  0  0  0
    0.0000    0.0000    0.0000 C   0  0  0  0  0  0  0  0  0  0  0  0
    0.0000    0.0000    0.0000 C   0  0  0  0  0  0  0  0  0  0  0  0
    0.0000    0.0000    0.0000 C   0  0  0  0  0  0  0  0  0  0  0  0
    0.0000    0.0000    0.0000 N   0  0  0  0  0  0  0  0  0  0  0  0
    0.0000    0.0000    0.0000 C   0  0  0  0  0  0  0  0  0  0  0  0
    0.0000    0.0000    0.0000 N   0  0  0  0  0  0  0  0  0  0  0  0
    0.0000    0.0000    0.0000 C   0  0  0  0  0  0  0  0  0  0  0  0
    0.0000    0.0000    0.0000 C   0  0  0  0  0  0  0  0  0  0  0  0
    0.0000    0.0000    0.0000 C   0  0  0  0  0  0  0  0  0  0  0  0
    0.0000    0.0000    0.0000 N   0  0  0  0  0  0  0  0  0  0  0  0
    0.0000    0.0000    0.0000 C   0  0  0  0  0  0  0  0  0  0  0  0
    0.0000    0.0000    0.0000 C   0  0  0  0  0  0  0  0  0  0  0  0
    0.0000    0.0000    0.0000 C   0  0  0  0  0  0  0  0  0  0  0  0
    0.0000    0.0000    0.0000 C   0  0  0  0  0  0  0  0  0  0  0  0
    0.0000    0.0000    0.0000 N   0  0  0  0  0  0  0  0  0  0  0  0
    0.0000    0.0000    0.0000 C   0  0  0  0  0  0  0  0  0  0  0  0
    0.0000    0.0000    0.0000 C   0  0  0  0  0  0  0  0  0  0  0  0
    0.0000    0.0000    0.0000 C   0  0  0  0  0  0  0  0  0  0  0  0
    0.0000    0.0000    0.0000 C   0  0  0  0  0  0  0  0  0  0  0  0
  1  2  1  0
  2  3  1  0
  3  4  1  0
  4  5  1  0
  5  6  1  0
  6  7  1  0
  7  8  2  0
  8  9  1  0
  9 10  2  0
 10 11  1  0
 11 12  2  0
 10 13  1  0
 13 14  2  0
 13 15  1  0
 15 16  1  0
 16 17  2  0
 17 18  1  0
 18 19  2  0
 19 20  1  0
 19 21  1  0
 21 22  1  0
 22 23  1  0
 23 24  2  0
 24 25  1  0
 25 26  2  0
 26 27  1  0
 27 28  2  0
 27 29  1  0
 29 30  2  0
 30 31  1  0
 31 32  2  0
 32 33  1  0
 33 34  2  0
 21 35  2  0
  5 36  1  0
 36 37  1  0
 37  2  1  0
 12  7  1  0
 35 16  1  0
 28 23  1  0
 34 29  1  0
M  END
>  <pIC50>  (21) 
6.59633333333

>  <ChEMBL_ID>  (21) 
CHEMBL941

>  <document_journal>  (21) 
Bioorg. Med. Chem. Lett.

>  <bao_endpoint>  (21) 
BAO_0000190

>  <potential_duplicate>  (21) 
False

>  <uo_units>  (21) 
UO_0000065

>  <canonical_smiles>  (21) 
CN1CCN(Cc2ccc(cc2)C(=O)Nc3ccc(C)c(Nc4nccc(n4)c5cccnc5)c3)CC1

>  <parent_molecule_chembl_id>  (21) 
CHEMBL941

>  <assay_type>  (21) 
B

>  <src_id>  (21) 
1

>  <ligand_efficiency>  (21) 
{u'le': u'0.27', u'bei': u'15.03', u'sei': u'8.6', u'lle': u'3.2'}

>  <standard_flag>  (21) 
True

>  <molecule_chembl_id>  (21) 
CHEMBL941

>  <target_organism>  (21) 
Homo sapiens

>  <standard_units>  (21) 
nM

>  <record_id>  (21) 
97892

>  <document_chembl_id>  (21) 
CHEMBL1130562

>  <bao_format>  (21) 
BAO_0000357

>  <data_validity_description>  (21) 
None

>  <activity_id>  (21) 
909963

>  <standard_type>  (21) 
IC50

>  <target_chembl_id>  (21) 
CHEMBL1862

>  <data_validity_comment>  (21) 
None

>  <published_value>  (21) 
0.038

>  <document_year>  (21) 
1997

>  <target_pref_name>  (21) 
Tyrosine-protein kinase ABL

>  <assay_chembl_id>  (21) 
CHEMBL846547

>  <standard_relation>  (21) 
=

>  <assay_description>  (21) 
Inhibition of v-Abl tyrosine kinase.

>  <published_relation>  (21) 
=

>  <standard_value>  (21) 
38

>  <qudt_units>  (21) 
http://www.openphacts.org/units/Nanomolar

>  <target_tax_id>  (21) 
9606

>  <bao_label>  (21) 
single protein format

>  <published_units>  (21) 
uM

>  <pchembl_value>  (21) 
7.42

>  <published_type>  (21) 
IC50

>  <activity_comment>  (21) 
None

$$$$

     RDKit          

 30 33  0  0  0  0  0  0  0  0999 V2000
    0.0000    0.0000    0.0000 C   0  0  0  0  0  0  0  0  0  0  0  0
    0.0000    0.0000    0.0000 C   0  0  0  0  0  0  0  0  0  0  0  0
    0.0000    0.0000    0.0000 C   0  0  0  0  0  0  0  0  0  0  0  0
    0.0000    0.0000    0.0000 C   0  0  0  0  0  0  0  0  0  0  0  0
    0.0000    0.0000    0.0000 C   0  0  0  0  0  0  0  0  0  0  0  0
    0.0000    0.0000    0.0000 N   0  0  0  0  0  0  0  0  0  0  0  0
    0.0000    0.0000    0.0000 C   0  0  0  0  0  0  0  0  0  0  0  0
    0.0000    0.0000    0.0000 O   0  0  0  0  0  0  0  0  0  0  0  0
    0.0000    0.0000    0.0000 C   0  0  0  0  0  0  0  0  0  0  0  0
    0.0000    0.0000    0.0000 C   0  0  0  0  0  0  0  0  0  0  0  0
    0.0000    0.0000    0.0000 C   0  0  0  0  0  0  0  0  0  0  0  0
    0.0000    0.0000    0.0000 C   0  0  0  0  0  0  0  0  0  0  0  0
    0.0000    0.0000    0.0000 Cl  0  0  0  0  0  0  0  0  0  0  0  0
    0.0000    0.0000    0.0000 C   0  0  0  0  0  0  0  0  0  0  0  0
    0.0000    0.0000    0.0000 C   0  0  0  0  0  0  0  0  0  0  0  0
    0.0000    0.0000    0.0000 C   0  0  0  0  0  0  0  0  0  0  0  0
    0.0000    0.0000    0.0000 C   0  0  0  0  0  0  0  0  0  0  0  0
    0.0000    0.0000    0.0000 N   0  0  0  0  0  0  0  0  0  0  0  0
    0.0000    0.0000    0.0000 C   0  0  0  0  0  0  0  0  0  0  0  0
    0.0000    0.0000    0.0000 N   0  0  0  0  0  0  0  0  0  0  0  0
    0.0000    0.0000    0.0000 C   0  0  0  0  0  0  0  0  0  0  0  0
    0.0000    0.0000    0.0000 C   0  0  0  0  0  0  0  0  0  0  0  0
    0.0000    0.0000    0.0000 C   0  0  0  0  0  0  0  0  0  0  0  0
    0.0000    0.0000    0.0000 N   0  0  0  0  0  0  0  0  0  0  0  0
    0.0000    0.0000    0.0000 C   0  0  0  0  0  0  0  0  0  0  0  0
    0.0000    0.0000    0.0000 C   0  0  0  0  0  0  0  0  0  0  0  0
    0.0000    0.0000    0.0000 C   0  0  0  0  0  0  0  0  0  0  0  0
    0.0000    0.0000    0.0000 C   0  0  0  0  0  0  0  0  0  0  0  0
    0.0000    0.0000    0.0000 N   0  0  0  0  0  0  0  0  0  0  0  0
    0.0000    0.0000    0.0000 C   0  0  0  0  0  0  0  0  0  0  0  0
  1  2  1  0
  2  3  2  0
  3  4  1  0
  4  5  2  0
  5  6  1  0
  6  7  1  0
  7  8  2  0
  7  9  1  0
  9 10  2  0
 10 11  1  0
 11 12  2  0
 12 13  1  0
 12 14  1  0
 14 15  2  0
  5 16  1  0
 16 17  2  0
 17 18  1  0
 18 19  1  0
 19 20  2  0
 20 21  1  0
 21 22  2  0
 22 23  1  0
 23 24  2  0
 23 25  1  0
 25 26  2  0
 26 27  1  0
 27 28  2  0
 28 29  1  0
 29 30  2  0
 17  2  1  0
 15  9  1  0
 24 19  1  0
 30 25  1  0
M  END
>  <pIC50>  (22) 
6.1

>  <ChEMBL_ID>  (22) 
CHEMBL21162

>  <document_journal>  (22) 
Bioorg. Med. Chem. Lett.

>  <bao_endpoint>  (22) 
BAO_0000190

>  <potential_duplicate>  (22) 
False

>  <uo_units>  (22) 
UO_0000065

>  <canonical_smiles>  (22) 
Cc1ccc(NC(=O)c2ccc(Cl)cc2)cc1Nc3nccc(n3)c4cccnc4

>  <parent_molecule_chembl_id>  (22) 
CHEMBL21162

>  <assay_type>  (22) 
B

>  <src_id>  (22) 
1

>  <ligand_efficiency>  (22) 
{u'le': u'0.28', u'bei': u'14.66', u'sei': u'7.64', u'lle': u'1.25'}

>  <standard_flag>  (22) 
True

>  <molecule_chembl_id>  (22) 
CHEMBL21162

>  <target_organism>  (22) 
Homo sapiens

>  <standard_units>  (22) 
nM

>  <record_id>  (22) 
97905

>  <document_chembl_id>  (22) 
CHEMBL1130562

>  <bao_format>  (22) 
BAO_0000357

>  <data_validity_description>  (22) 
None

>  <activity_id>  (22) 
912524

>  <standard_type>  (22) 
IC50

>  <target_chembl_id>  (22) 
CHEMBL1862

>  <data_validity_comment>  (22) 
None

>  <published_value>  (22) 
0.8

>  <document_year>  (22) 
1997

>  <target_pref_name>  (22) 
Tyrosine-protein kinase ABL

>  <assay_chembl_id>  (22) 
CHEMBL846547

>  <standard_relation>  (22) 
=

>  <assay_description>  (22) 
Inhibition of v-Abl tyrosine kinase.

>  <published_relation>  (22) 
=

>  <standard_value>  (22) 
800

>  <qudt_units>  (22) 
http://www.openphacts.org/units/Nanomolar

>  <target_tax_id>  (22) 
9606

>  <bao_label>  (22) 
single protein format

>  <published_units>  (22) 
uM

>  <pchembl_value>  (22) 
6.1

>  <published_type>  (22) 
IC50

>  <activity_comment>  (22) 
None

$$$$

     RDKit          

 20 22  0  0  0  0  0  0  0  0999 V2000
    0.0000    0.0000    0.0000 Cl  0  0  0  0  0  0  0  0  0  0  0  0
    0.0000    0.0000    0.0000 C   0  0  0  0  0  0  0  0  0  0  0  0
    0.0000    0.0000    0.0000 C   0  0  0  0  0  0  0  0  0  0  0  0
    0.0000    0.0000    0.0000 C   0  0  0  0  0  0  0  0  0  0  0  0
    0.0000    0.0000    0.0000 C   0  0  0  0  0  0  0  0  0  0  0  0
    0.0000    0.0000    0.0000 C   0  0  0  0  0  0  0  0  0  0  0  0
    0.0000    0.0000    0.0000 N   0  0  0  0  0  0  0  0  0  0  0  0
    0.0000    0.0000    0.0000 C   0  0  0  0  0  0  0  0  0  0  0  0
    0.0000    0.0000    0.0000 N   0  0  0  0  0  0  0  0  0  0  0  0
    0.0000    0.0000    0.0000 C   0  0  0  0  0  0  0  0  0  0  0  0
    0.0000    0.0000    0.0000 C   0  0  0  0  0  0  0  0  0  0  0  0
    0.0000    0.0000    0.0000 C   0  0  0  0  0  0  0  0  0  0  0  0
    0.0000    0.0000    0.0000 N   0  0  0  0  0  0  0  0  0  0  0  0
    0.0000    0.0000    0.0000 C   0  0  0  0  0  0  0  0  0  0  0  0
    0.0000    0.0000    0.0000 C   0  0  0  0  0  0  0  0  0  0  0  0
    0.0000    0.0000    0.0000 C   0  0  0  0  0  0  0  0  0  0  0  0
    0.0000    0.0000    0.0000 C   0  0  0  0  0  0  0  0  0  0  0  0
    0.0000    0.0000    0.0000 N   0  0  0  0  0  0  0  0  0  0  0  0
    0.0000    0.0000    0.0000 C   0  0  0  0  0  0  0  0  0  0  0  0
    0.0000    0.0000    0.0000 C   0  0  0  0  0  0  0  0  0  0  0  0
  1  2  1  0
  2  3  2  0
  3  4  1  0
  4  5  2  0
  5  6  1  0
  6  7  1  0
  7  8  1  0
  8  9  2  0
  9 10  1  0
 10 11  2  0
 11 12  1  0
 12 13  2  0
 12 14  1  0
 14 15  2  0
 15 16  1  0
 16 17  2  0
 17 18  1  0
 18 19  2  0
  6 20  2  0
 20  2  1  0
 13  8  1  0
 19 14  1  0
M  END
>  <pIC50>  (23) 
5.82

>  <ChEMBL_ID>  (23) 
CHEMBL300817

>  <document_journal>  (23) 
Bioorg. Med. Chem. Lett.

>  <bao_endpoint>  (23) 
BAO_0000190

>  <potential_duplicate>  (23) 
False

>  <uo_units>  (23) 
UO_0000065

>  <canonical_smiles>  (23) 
Clc1cccc(Nc2nccc(n2)c3cccnc3)c1

>  <parent_molecule_chembl_id>  (23) 
CHEMBL300817

>  <assay_type>  (23) 
B

>  <src_id>  (23) 
1

>  <ligand_efficiency>  (23) 
{u'le': u'0.4', u'bei': u'20.6', u'sei': u'11.49', u'lle': u'2.24'}

>  <standard_flag>  (23) 
True

>  <molecule_chembl_id>  (23) 
CHEMBL300817

>  <target_organism>  (23) 
Homo sapiens

>  <standard_units>  (23) 
nM

>  <record_id>  (23) 
97911

>  <document_chembl_id>  (23) 
CHEMBL1130562

>  <bao_format>  (23) 
BAO_0000357

>  <data_validity_description>  (23) 
None

>  <activity_id>  (23) 
912531

>  <standard_type>  (23) 
IC50

>  <target_chembl_id>  (23) 
CHEMBL1862

>  <data_validity_comment>  (23) 
None

>  <published_value>  (23) 
1.5

>  <document_year>  (23) 
1997

>  <target_pref_name>  (23) 
Tyrosine-protein kinase ABL

>  <assay_chembl_id>  (23) 
CHEMBL846547

>  <standard_relation>  (23) 
=

>  <assay_description>  (23) 
Inhibition of v-Abl tyrosine kinase.

>  <published_relation>  (23) 
=

>  <standard_value>  (23) 
1500

>  <qudt_units>  (23) 
http://www.openphacts.org/units/Nanomolar

>  <target_tax_id>  (23) 
9606

>  <bao_label>  (23) 
single protein format

>  <published_units>  (23) 
uM

>  <pchembl_value>  (23) 
5.82

>  <published_type>  (23) 
IC50

>  <activity_comment>  (23) 
None

$$$$

     RDKit          

 28 31  0  0  0  0  0  0  0  0999 V2000
    0.0000    0.0000    0.0000 O   0  0  0  0  0  0  0  0  0  0  0  0
    0.0000    0.0000    0.0000 C   0  0  0  0  0  0  0  0  0  0  0  0
    0.0000    0.0000    0.0000 N   0  0  0  0  0  0  0  0  0  0  0  0
    0.0000    0.0000    0.0000 C   0  0  0  0  0  0  0  0  0  0  0  0
    0.0000    0.0000    0.0000 C   0  0  0  0  0  0  0  0  0  0  0  0
    0.0000    0.0000    0.0000 C   0  0  0  0  0  0  0  0  0  0  0  0
    0.0000    0.0000    0.0000 C   0  0  0  0  0  0  0  0  0  0  0  0
    0.0000    0.0000    0.0000 C   0  0  0  0  0  0  0  0  0  0  0  0
    0.0000    0.0000    0.0000 N   0  0  0  0  0  0  0  0  0  0  0  0
    0.0000    0.0000    0.0000 C   0  0  0  0  0  0  0  0  0  0  0  0
    0.0000    0.0000    0.0000 N   0  0  0  0  0  0  0  0  0  0  0  0
    0.0000    0.0000    0.0000 C   0  0  0  0  0  0  0  0  0  0  0  0
    0.0000    0.0000    0.0000 C   0  0  0  0  0  0  0  0  0  0  0  0
    0.0000    0.0000    0.0000 C   0  0  0  0  0  0  0  0  0  0  0  0
    0.0000    0.0000    0.0000 N   0  0  0  0  0  0  0  0  0  0  0  0
    0.0000    0.0000    0.0000 C   0  0  0  0  0  0  0  0  0  0  0  0
    0.0000    0.0000    0.0000 C   0  0  0  0  0  0  0  0  0  0  0  0
    0.0000    0.0000    0.0000 C   0  0  0  0  0  0  0  0  0  0  0  0
    0.0000    0.0000    0.0000 C   0  0  0  0  0  0  0  0  0  0  0  0
    0.0000    0.0000    0.0000 N   0  0  0  0  0  0  0  0  0  0  0  0
    0.0000    0.0000    0.0000 C   0  0  0  0  0  0  0  0  0  0  0  0
    0.0000    0.0000    0.0000 C   0  0  0  0  0  0  0  0  0  0  0  0
    0.0000    0.0000    0.0000 C   0  0  0  0  0  0  0  0  0  0  0  0
    0.0000    0.0000    0.0000 C   0  0  0  0  0  0  0  0  0  0  0  0
    0.0000    0.0000    0.0000 C   0  0  0  0  0  0  0  0  0  0  0  0
    0.0000    0.0000    0.0000 C   0  0  0  0  0  0  0  0  0  0  0  0
    0.0000    0.0000    0.0000 C   0  0  0  0  0  0  0  0  0  0  0  0
    0.0000    0.0000    0.0000 C   0  0  0  0  0  0  0  0  0  0  0  0
  1  2  2  0
  2  3  1  0
  3  4  1  0
  4  5  2  0
  5  6  1  0
  6  7  2  0
  7  8  1  0
  8  9  1  0
  9 10  1  0
 10 11  2  0
 11 12  1  0
 12 13  2  0
 13 14  1  0
 14 15  2  0
 14 16  1  0
 16 17  2  0
 17 18  1  0
 18 19  2  0
 19 20  1  0
 20 21  2  0
  8 22  2  0
  2 23  1  0
 23 24  2  0
 24 25  1  0
 25 26  2  0
 26 27  1  0
 27 28  2  0
 22  4  1  0
 15 10  1  0
 21 16  1  0
 28 23  1  0
M  END
>  <pIC50>  (24) 
6.4

>  <ChEMBL_ID>  (24) 
CHEMBL277931

>  <document_journal>  (24) 
Bioorg. Med. Chem. Lett.

>  <bao_endpoint>  (24) 
BAO_0000190

>  <potential_duplicate>  (24) 
False

>  <uo_units>  (24) 
UO_0000065

>  <canonical_smiles>  (24) 
O=C(Nc1cccc(Nc2nccc(n2)c3cccnc3)c1)c4ccccc4

>  <parent_molecule_chembl_id>  (24) 
CHEMBL277931

>  <assay_type>  (24) 
B

>  <src_id>  (24) 
1

>  <ligand_efficiency>  (24) 
{u'le': u'0.31', u'bei': u'17.41', u'sei': u'8.02', u'lle': u'2.7'}

>  <standard_flag>  (24) 
True

>  <molecule_chembl_id>  (24) 
CHEMBL277931

>  <target_organism>  (24) 
Homo sapiens

>  <standard_units>  (24) 
nM

>  <record_id>  (24) 
97926

>  <document_chembl_id>  (24) 
CHEMBL1130562

>  <bao_format>  (24) 
BAO_0000357

>  <data_validity_description>  (24) 
None

>  <activity_id>  (24) 
913909

>  <standard_type>  (24) 
IC50

>  <target_chembl_id>  (24) 
CHEMBL1862

>  <data_validity_comment>  (24) 
None

>  <published_value>  (24) 
0.4

>  <document_year>  (24) 
1997

>  <target_pref_name>  (24) 
Tyrosine-protein kinase ABL

>  <assay_chembl_id>  (24) 
CHEMBL846547

>  <standard_relation>  (24) 
=

>  <assay_description>  (24) 
Inhibition of v-Abl tyrosine kinase.

>  <published_relation>  (24) 
=

>  <standard_value>  (24) 
400

>  <qudt_units>  (24) 
http://www.openphacts.org/units/Nanomolar

>  <target_tax_id>  (24) 
9606

>  <bao_label>  (24) 
single protein format

>  <published_units>  (24) 
uM

>  <pchembl_value>  (24) 
6.4

>  <published_type>  (24) 
IC50

>  <activity_comment>  (24) 
None

$$$$

     RDKit          

 22 24  0  0  0  0  0  0  0  0999 V2000
    0.0000    0.0000    0.0000 O   0  0  0  0  0  0  0  0  0  0  0  0
    0.0000    0.0000    0.0000 C   0  0  0  0  0  0  0  0  0  0  0  0
    0.0000    0.0000    0.0000 O   0  0  0  0  0  0  0  0  0  0  0  0
    0.0000    0.0000    0.0000 C   0  0  0  0  0  0  0  0  0  0  0  0
    0.0000    0.0000    0.0000 C   0  0  0  0  0  0  0  0  0  0  0  0
    0.0000    0.0000    0.0000 C   0  0  0  0  0  0  0  0  0  0  0  0
    0.0000    0.0000    0.0000 C   0  0  0  0  0  0  0  0  0  0  0  0
    0.0000    0.0000    0.0000 C   0  0  0  0  0  0  0  0  0  0  0  0
    0.0000    0.0000    0.0000 N   0  0  0  0  0  0  0  0  0  0  0  0
    0.0000    0.0000    0.0000 C   0  0  0  0  0  0  0  0  0  0  0  0
    0.0000    0.0000    0.0000 N   0  0  0  0  0  0  0  0  0  0  0  0
    0.0000    0.0000    0.0000 C   0  0  0  0  0  0  0  0  0  0  0  0
    0.0000    0.0000    0.0000 C   0  0  0  0  0  0  0  0  0  0  0  0
    0.0000    0.0000    0.0000 C   0  0  0  0  0  0  0  0  0  0  0  0
    0.0000    0.0000    0.0000 N   0  0  0  0  0  0  0  0  0  0  0  0
    0.0000    0.0000    0.0000 C   0  0  0  0  0  0  0  0  0  0  0  0
    0.0000    0.0000    0.0000 C   0  0  0  0  0  0  0  0  0  0  0  0
    0.0000    0.0000    0.0000 C   0  0  0  0  0  0  0  0  0  0  0  0
    0.0000    0.0000    0.0000 C   0  0  0  0  0  0  0  0  0  0  0  0
    0.0000    0.0000    0.0000 N   0  0  0  0  0  0  0  0  0  0  0  0
    0.0000    0.0000    0.0000 C   0  0  0  0  0  0  0  0  0  0  0  0
    0.0000    0.0000    0.0000 C   0  0  0  0  0  0  0  0  0  0  0  0
  1  2  1  0
  2  3  2  0
  2  4  1  0
  4  5  2  0
  5  6  1  0
  6  7  2  0
  7  8  1  0
  8  9  1  0
  9 10  1  0
 10 11  2  0
 11 12  1  0
 12 13  2  0
 13 14  1  0
 14 15  2  0
 14 16  1  0
 16 17  2  0
 17 18  1  0
 18 19  2  0
 19 20  1  0
 20 21  2  0
  8 22  2  0
 22  4  1  0
 15 10  1  0
 21 16  1  0
M  END
>  <pIC50>  (25) 
5.1

>  <ChEMBL_ID>  (25) 
CHEMBL57556

>  <document_journal>  (25) 
Bioorg. Med. Chem. Lett.

>  <bao_endpoint>  (25) 
BAO_0000190

>  <potential_duplicate>  (25) 
False

>  <uo_units>  (25) 
UO_0000065

>  <canonical_smiles>  (25) 
OC(=O)c1cccc(Nc2nccc(n2)c3cccnc3)c1

>  <parent_molecule_chembl_id>  (25) 
CHEMBL57556

>  <assay_type>  (25) 
B

>  <src_id>  (25) 
1

>  <ligand_efficiency>  (25) 
{u'le': u'0.32', u'bei': u'17.44', u'sei': u'5.79', u'lle': u'2.55'}

>  <standard_flag>  (25) 
True

>  <molecule_chembl_id>  (25) 
CHEMBL57556

>  <target_organism>  (25) 
Homo sapiens

>  <standard_units>  (25) 
nM

>  <record_id>  (25) 
97918

>  <document_chembl_id>  (25) 
CHEMBL1130562

>  <bao_format>  (25) 
BAO_0000357

>  <data_validity_description>  (25) 
None

>  <activity_id>  (25) 
913916

>  <standard_type>  (25) 
IC50

>  <target_chembl_id>  (25) 
CHEMBL1862

>  <data_validity_comment>  (25) 
None

>  <published_value>  (25) 
8

>  <document_year>  (25) 
1997

>  <target_pref_name>  (25) 
Tyrosine-protein kinase ABL

>  <assay_chembl_id>  (25) 
CHEMBL846547

>  <standard_relation>  (25) 
=

>  <assay_description>  (25) 
Inhibition of v-Abl tyrosine kinase.

>  <published_relation>  (25) 
=

>  <standard_value>  (25) 
8000

>  <qudt_units>  (25) 
http://www.openphacts.org/units/Nanomolar

>  <target_tax_id>  (25) 
9606

>  <bao_label>  (25) 
single protein format

>  <published_units>  (25) 
uM

>  <pchembl_value>  (25) 
5.1

>  <published_type>  (25) 
IC50

>  <activity_comment>  (25) 
None

$$$$

     RDKit          

 33 37  0  0  0  0  0  0  0  0999 V2000
    0.0000    0.0000    0.0000 C   0  0  0  0  0  0  0  0  0  0  0  0
    0.0000    0.0000    0.0000 C   0  0  0  0  0  0  0  0  0  0  0  0
    0.0000    0.0000    0.0000 C   0  0  0  0  0  0  0  0  0  0  0  0
    0.0000    0.0000    0.0000 C   0  0  0  0  0  0  0  0  0  0  0  0
    0.0000    0.0000    0.0000 C   0  0  0  0  0  0  0  0  0  0  0  0
    0.0000    0.0000    0.0000 N   0  0  0  0  0  0  0  0  0  0  0  0
    0.0000    0.0000    0.0000 C   0  0  0  0  0  0  0  0  0  0  0  0
    0.0000    0.0000    0.0000 O   0  0  0  0  0  0  0  0  0  0  0  0
    0.0000    0.0000    0.0000 C   0  0  0  0  0  0  0  0  0  0  0  0
    0.0000    0.0000    0.0000 C   0  0  0  0  0  0  0  0  0  0  0  0
    0.0000    0.0000    0.0000 C   0  0  0  0  0  0  0  0  0  0  0  0
    0.0000    0.0000    0.0000 C   0  0  0  0  0  0  0  0  0  0  0  0
    0.0000    0.0000    0.0000 C   0  0  0  0  0  0  0  0  0  0  0  0
    0.0000    0.0000    0.0000 C   0  0  0  0  0  0  0  0  0  0  0  0
    0.0000    0.0000    0.0000 C   0  0  0  0  0  0  0  0  0  0  0  0
    0.0000    0.0000    0.0000 C   0  0  0  0  0  0  0  0  0  0  0  0
    0.0000    0.0000    0.0000 C   0  0  0  0  0  0  0  0  0  0  0  0
    0.0000    0.0000    0.0000 C   0  0  0  0  0  0  0  0  0  0  0  0
    0.0000    0.0000    0.0000 C   0  0  0  0  0  0  0  0  0  0  0  0
    0.0000    0.0000    0.0000 C   0  0  0  0  0  0  0  0  0  0  0  0
    0.0000    0.0000    0.0000 N   0  0  0  0  0  0  0  0  0  0  0  0
    0.0000    0.0000    0.0000 C   0  0  0  0  0  0  0  0  0  0  0  0
    0.0000    0.0000    0.0000 N   0  0  0  0  0  0  0  0  0  0  0  0
    0.0000    0.0000    0.0000 C   0  0  0  0  0  0  0  0  0  0  0  0
    0.0000    0.0000    0.0000 C   0  0  0  0  0  0  0  0  0  0  0  0
    0.0000    0.0000    0.0000 C   0  0  0  0  0  0  0  0  0  0  0  0
    0.0000    0.0000    0.0000 N   0  0  0  0  0  0  0  0  0  0  0  0
    0.0000    0.0000    0.0000 C   0  0  0  0  0  0  0  0  0  0  0  0
    0.0000    0.0000    0.0000 C   0  0  0  0  0  0  0  0  0  0  0  0
    0.0000    0.0000    0.0000 C   0  0  0  0  0  0  0  0  0  0  0  0
    0.0000    0.0000    0.0000 C   0  0  0  0  0  0  0  0  0  0  0  0
    0.0000    0.0000    0.0000 N   0  0  0  0  0  0  0  0  0  0  0  0
    0.0000    0.0000    0.0000 C   0  0  0  0  0  0  0  0  0  0  0  0
  1  2  1  0
  2  3  2  0
  3  4  1  0
  4  5  2  0
  5  6  1  0
  6  7  1  0
  7  8  2  0
  7  9  1  0
  9 10  2  0
 10 11  1  0
 11 12  2  0
 12 13  1  0
 13 14  2  0
 14 15  1  0
 15 16  2  0
 16 17  1  0
 17 18  2  0
  5 19  1  0
 19 20  2  0
 20 21  1  0
 21 22  1  0
 22 23  2  0
 23 24  1  0
 24 25  2  0
 25 26  1  0
 26 27  2  0
 26 28  1  0
 28 29  2  0
 29 30  1  0
 30 31  2  0
 31 32  1  0
 32 33  2  0
 20  2  1  0
 18  9  1  0
 17 12  1  0
 27 22  1  0
 33 28  1  0
M  END
>  <pIC50>  (26) 
6.7

>  <ChEMBL_ID>  (26) 
CHEMBL20252

>  <document_journal>  (26) 
Bioorg. Med. Chem. Lett.

>  <bao_endpoint>  (26) 
BAO_0000190

>  <potential_duplicate>  (26) 
False

>  <uo_units>  (26) 
UO_0000065

>  <canonical_smiles>  (26) 
Cc1ccc(NC(=O)c2ccc3ccccc3c2)cc1Nc4nccc(n4)c5cccnc5

>  <parent_molecule_chembl_id>  (26) 
CHEMBL20252

>  <assay_type>  (26) 
B

>  <src_id>  (26) 
1

>  <ligand_efficiency>  (26) 
{u'le': u'0.28', u'bei': u'15.53', u'sei': u'8.39', u'lle': u'1.6'}

>  <standard_flag>  (26) 
True

>  <molecule_chembl_id>  (26) 
CHEMBL20252

>  <target_organism>  (26) 
Homo sapiens

>  <standard_units>  (26) 
nM

>  <record_id>  (26) 
97895

>  <document_chembl_id>  (26) 
CHEMBL1130562

>  <bao_format>  (26) 
BAO_0000357

>  <data_validity_description>  (26) 
None

>  <activity_id>  (26) 
917715

>  <standard_type>  (26) 
IC50

>  <target_chembl_id>  (26) 
CHEMBL1862

>  <data_validity_comment>  (26) 
None

>  <published_value>  (26) 
0.2

>  <document_year>  (26) 
1997

>  <target_pref_name>  (26) 
Tyrosine-protein kinase ABL

>  <assay_chembl_id>  (26) 
CHEMBL846547

>  <standard_relation>  (26) 
=

>  <assay_description>  (26) 
Inhibition of v-Abl tyrosine kinase.

>  <published_relation>  (26) 
=

>  <standard_value>  (26) 
200

>  <qudt_units>  (26) 
http://www.openphacts.org/units/Nanomolar

>  <target_tax_id>  (26) 
9606

>  <bao_label>  (26) 
single protein format

>  <published_units>  (26) 
uM

>  <pchembl_value>  (26) 
6.7

>  <published_type>  (26) 
IC50

>  <activity_comment>  (26) 
None

$$$$

     RDKit          

 24 26  0  0  0  0  0  0  0  0999 V2000
    0.0000    0.0000    0.0000 C   0  0  0  0  0  0  0  0  0  0  0  0
    0.0000    0.0000    0.0000 C   0  0  0  0  0  0  0  0  0  0  0  0
    0.0000    0.0000    0.0000 O   0  0  0  0  0  0  0  0  0  0  0  0
    0.0000    0.0000    0.0000 N   0  0  0  0  0  0  0  0  0  0  0  0
    0.0000    0.0000    0.0000 C   0  0  0  0  0  0  0  0  0  0  0  0
    0.0000    0.0000    0.0000 C   0  0  0  0  0  0  0  0  0  0  0  0
    0.0000    0.0000    0.0000 C   0  0  0  0  0  0  0  0  0  0  0  0
    0.0000    0.0000    0.0000 C   0  0  0  0  0  0  0  0  0  0  0  0
    0.0000    0.0000    0.0000 C   0  0  0  0  0  0  0  0  0  0  0  0
    0.0000    0.0000    0.0000 C   0  0  0  0  0  0  0  0  0  0  0  0
    0.0000    0.0000    0.0000 N   0  0  0  0  0  0  0  0  0  0  0  0
    0.0000    0.0000    0.0000 C   0  0  0  0  0  0  0  0  0  0  0  0
    0.0000    0.0000    0.0000 N   0  0  0  0  0  0  0  0  0  0  0  0
    0.0000    0.0000    0.0000 C   0  0  0  0  0  0  0  0  0  0  0  0
    0.0000    0.0000    0.0000 C   0  0  0  0  0  0  0  0  0  0  0  0
    0.0000    0.0000    0.0000 C   0  0  0  0  0  0  0  0  0  0  0  0
    0.0000    0.0000    0.0000 N   0  0  0  0  0  0  0  0  0  0  0  0
    0.0000    0.0000    0.0000 C   0  0  0  0  0  0  0  0  0  0  0  0
    0.0000    0.0000    0.0000 C   0  0  0  0  0  0  0  0  0  0  0  0
    0.0000    0.0000    0.0000 C   0  0  0  0  0  0  0  0  0  0  0  0
    0.0000    0.0000    0.0000 C   0  0  0  0  0  0  0  0  0  0  0  0
    0.0000    0.0000    0.0000 N   0  0  0  0  0  0  0  0  0  0  0  0
    0.0000    0.0000    0.0000 C   0  0  0  0  0  0  0  0  0  0  0  0
    0.0000    0.0000    0.0000 C   0  0  0  0  0  0  0  0  0  0  0  0
  1  2  1  0
  2  3  2  0
  2  4  1  0
  4  5  1  0
  5  6  2  0
  6  7  1  0
  7  8  2  0
  8  9  1  0
  8 10  1  0
 10 11  1  0
 11 12  1  0
 12 13  2  0
 13 14  1  0
 14 15  2  0
 15 16  1  0
 16 17  2  0
 16 18  1  0
 18 19  2  0
 19 20  1  0
 20 21  2  0
 21 22  1  0
 22 23  2  0
 10 24  2  0
 24  5  1  0
 17 12  1  0
 23 18  1  0
M  END
>  <pIC50>  (27) 
5.24

>  <ChEMBL_ID>  (27) 
CHEMBL423288

>  <document_journal>  (27) 
Bioorg. Med. Chem. Lett.

>  <bao_endpoint>  (27) 
BAO_0000190

>  <potential_duplicate>  (27) 
False

>  <uo_units>  (27) 
UO_0000065

>  <canonical_smiles>  (27) 
CC(=O)Nc1ccc(C)c(Nc2nccc(n2)c3cccnc3)c1

>  <parent_molecule_chembl_id>  (27) 
CHEMBL423288

>  <assay_type>  (27) 
B

>  <src_id>  (27) 
1

>  <ligand_efficiency>  (27) 
{u'le': u'0.3', u'bei': u'16.4', u'sei': u'6.56', u'lle': u'2.71'}

>  <standard_flag>  (27) 
True

>  <molecule_chembl_id>  (27) 
CHEMBL423288

>  <target_organism>  (27) 
Homo sapiens

>  <standard_units>  (27) 
nM

>  <record_id>  (27) 
97919

>  <document_chembl_id>  (27) 
CHEMBL1130562

>  <bao_format>  (27) 
BAO_0000357

>  <data_validity_description>  (27) 
None

>  <activity_id>  (27) 
917722

>  <standard_type>  (27) 
IC50

>  <target_chembl_id>  (27) 
CHEMBL1862

>  <data_validity_comment>  (27) 
None

>  <published_value>  (27) 
5.8

>  <document_year>  (27) 
1997

>  <target_pref_name>  (27) 
Tyrosine-protein kinase ABL

>  <assay_chembl_id>  (27) 
CHEMBL846547

>  <standard_relation>  (27) 
=

>  <assay_description>  (27) 
Inhibition of v-Abl tyrosine kinase.

>  <published_relation>  (27) 
=

>  <standard_value>  (27) 
5800

>  <qudt_units>  (27) 
http://www.openphacts.org/units/Nanomolar

>  <target_tax_id>  (27) 
9606

>  <bao_label>  (27) 
single protein format

>  <published_units>  (27) 
uM

>  <pchembl_value>  (27) 
5.24

>  <published_type>  (27) 
IC50

>  <activity_comment>  (27) 
None

$$$$

     RDKit          

 29 32  0  0  0  0  0  0  0  0999 V2000
    0.0000    0.0000    0.0000 F   0  0  0  0  0  0  0  0  0  0  0  0
    0.0000    0.0000    0.0000 C   0  0  0  0  0  0  0  0  0  0  0  0
    0.0000    0.0000    0.0000 C   0  0  0  0  0  0  0  0  0  0  0  0
    0.0000    0.0000    0.0000 C   0  0  0  0  0  0  0  0  0  0  0  0
    0.0000    0.0000    0.0000 C   0  0  0  0  0  0  0  0  0  0  0  0
    0.0000    0.0000    0.0000 C   0  0  0  0  0  0  0  0  0  0  0  0
    0.0000    0.0000    0.0000 C   0  0  0  0  0  0  0  0  0  0  0  0
    0.0000    0.0000    0.0000 C   0  0  0  0  0  0  0  0  0  0  0  0
    0.0000    0.0000    0.0000 O   0  0  0  0  0  0  0  0  0  0  0  0
    0.0000    0.0000    0.0000 N   0  0  0  0  0  0  0  0  0  0  0  0
    0.0000    0.0000    0.0000 C   0  0  0  0  0  0  0  0  0  0  0  0
    0.0000    0.0000    0.0000 C   0  0  0  0  0  0  0  0  0  0  0  0
    0.0000    0.0000    0.0000 C   0  0  0  0  0  0  0  0  0  0  0  0
    0.0000    0.0000    0.0000 C   0  0  0  0  0  0  0  0  0  0  0  0
    0.0000    0.0000    0.0000 C   0  0  0  0  0  0  0  0  0  0  0  0
    0.0000    0.0000    0.0000 N   0  0  0  0  0  0  0  0  0  0  0  0
    0.0000    0.0000    0.0000 C   0  0  0  0  0  0  0  0  0  0  0  0
    0.0000    0.0000    0.0000 N   0  0  0  0  0  0  0  0  0  0  0  0
    0.0000    0.0000    0.0000 C   0  0  0  0  0  0  0  0  0  0  0  0
    0.0000    0.0000    0.0000 C   0  0  0  0  0  0  0  0  0  0  0  0
    0.0000    0.0000    0.0000 C   0  0  0  0  0  0  0  0  0  0  0  0
    0.0000    0.0000    0.0000 N   0  0  0  0  0  0  0  0  0  0  0  0
    0.0000    0.0000    0.0000 C   0  0  0  0  0  0  0  0  0  0  0  0
    0.0000    0.0000    0.0000 C   0  0  0  0  0  0  0  0  0  0  0  0
    0.0000    0.0000    0.0000 C   0  0  0  0  0  0  0  0  0  0  0  0
    0.0000    0.0000    0.0000 C   0  0  0  0  0  0  0  0  0  0  0  0
    0.0000    0.0000    0.0000 N   0  0  0  0  0  0  0  0  0  0  0  0
    0.0000    0.0000    0.0000 C   0  0  0  0  0  0  0  0  0  0  0  0
    0.0000    0.0000    0.0000 C   0  0  0  0  0  0  0  0  0  0  0  0
  1  2  1  0
  2  3  2  0
  3  4  1  0
  4  5  2  0
  5  6  1  0
  6  7  2  0
  5  8  1  0
  8  9  2  0
  8 10  1  0
 10 11  1  0
 11 12  2  0
 12 13  1  0
 13 14  2  0
 14 15  1  0
 15 16  1  0
 16 17  1  0
 17 18  2  0
 18 19  1  0
 19 20  2  0
 20 21  1  0
 21 22  2  0
 21 23  1  0
 23 24  2  0
 24 25  1  0
 25 26  2  0
 26 27  1  0
 27 28  2  0
 15 29  2  0
  7  2  1  0
 29 11  1  0
 22 17  1  0
 28 23  1  0
M  END
>  <pIC50>  (28) 
6.7

>  <ChEMBL_ID>  (28) 
CHEMBL418279

>  <document_journal>  (28) 
Bioorg. Med. Chem. Lett.

>  <bao_endpoint>  (28) 
BAO_0000190

>  <potential_duplicate>  (28) 
False

>  <uo_units>  (28) 
UO_0000065

>  <canonical_smiles>  (28) 
Fc1ccc(cc1)C(=O)Nc2cccc(Nc3nccc(n3)c4cccnc4)c2

>  <parent_molecule_chembl_id>  (28) 
CHEMBL418279

>  <assay_type>  (28) 
B

>  <src_id>  (28) 
1

>  <ligand_efficiency>  (28) 
{u'le': u'0.32', u'bei': u'17.38', u'sei': u'8.39', u'lle': u'2.79'}

>  <standard_flag>  (28) 
True

>  <molecule_chembl_id>  (28) 
CHEMBL418279

>  <target_organism>  (28) 
Homo sapiens

>  <standard_units>  (28) 
nM

>  <record_id>  (28) 
97898

>  <document_chembl_id>  (28) 
CHEMBL1130562

>  <bao_format>  (28) 
BAO_0000357

>  <data_validity_description>  (28) 
None

>  <activity_id>  (28) 
919069

>  <standard_type>  (28) 
IC50

>  <target_chembl_id>  (28) 
CHEMBL1862

>  <data_validity_comment>  (28) 
None

>  <published_value>  (28) 
0.2

>  <document_year>  (28) 
1997

>  <target_pref_name>  (28) 
Tyrosine-protein kinase ABL

>  <assay_chembl_id>  (28) 
CHEMBL846547

>  <standard_relation>  (28) 
=

>  <assay_description>  (28) 
Inhibition of v-Abl tyrosine kinase.

>  <published_relation>  (28) 
=

>  <standard_value>  (28) 
200

>  <qudt_units>  (28) 
http://www.openphacts.org/units/Nanomolar

>  <target_tax_id>  (28) 
9606

>  <bao_label>  (28) 
single protein format

>  <published_units>  (28) 
uM

>  <pchembl_value>  (28) 
6.7

>  <published_type>  (28) 
IC50

>  <activity_comment>  (28) 
None

$$$$

     RDKit          

 22 24  0  0  0  0  0  0  0  0999 V2000
    0.0000    0.0000    0.0000 O   0  0  0  0  0  0  0  0  0  0  0  0
    0.0000    0.0000    0.0000 N   0  0  0  0  0  0  0  0  0  0  0  0
    0.0000    0.0000    0.0000 O   0  0  0  0  0  0  0  0  0  0  0  0
    0.0000    0.0000    0.0000 C   0  0  0  0  0  0  0  0  0  0  0  0
    0.0000    0.0000    0.0000 C   0  0  0  0  0  0  0  0  0  0  0  0
    0.0000    0.0000    0.0000 C   0  0  0  0  0  0  0  0  0  0  0  0
    0.0000    0.0000    0.0000 C   0  0  0  0  0  0  0  0  0  0  0  0
    0.0000    0.0000    0.0000 C   0  0  0  0  0  0  0  0  0  0  0  0
    0.0000    0.0000    0.0000 N   0  0  0  0  0  0  0  0  0  0  0  0
    0.0000    0.0000    0.0000 C   0  0  0  0  0  0  0  0  0  0  0  0
    0.0000    0.0000    0.0000 N   0  0  0  0  0  0  0  0  0  0  0  0
    0.0000    0.0000    0.0000 C   0  0  0  0  0  0  0  0  0  0  0  0
    0.0000    0.0000    0.0000 C   0  0  0  0  0  0  0  0  0  0  0  0
    0.0000    0.0000    0.0000 C   0  0  0  0  0  0  0  0  0  0  0  0
    0.0000    0.0000    0.0000 N   0  0  0  0  0  0  0  0  0  0  0  0
    0.0000    0.0000    0.0000 C   0  0  0  0  0  0  0  0  0  0  0  0
    0.0000    0.0000    0.0000 C   0  0  0  0  0  0  0  0  0  0  0  0
    0.0000    0.0000    0.0000 C   0  0  0  0  0  0  0  0  0  0  0  0
    0.0000    0.0000    0.0000 N   0  0  0  0  0  0  0  0  0  0  0  0
    0.0000    0.0000    0.0000 C   0  0  0  0  0  0  0  0  0  0  0  0
    0.0000    0.0000    0.0000 C   0  0  0  0  0  0  0  0  0  0  0  0
    0.0000    0.0000    0.0000 C   0  0  0  0  0  0  0  0  0  0  0  0
  1  2  1  0
  2  3  2  0
  2  4  1  0
  4  5  2  0
  5  6  1  0
  6  7  2  0
  7  8  1  0
  8  9  1  0
  9 10  1  0
 10 11  2  0
 11 12  1  0
 12 13  2  0
 13 14  1  0
 14 15  2  0
 14 16  1  0
 16 17  2  0
 17 18  1  0
 18 19  2  0
 19 20  1  0
 20 21  2  0
  8 22  2  0
 22  4  1  0
 15 10  1  0
 21 16  1  0
M  CHG  2   1  -1   2   1
M  END
>  <pIC50>  (29) 
4.22

>  <ChEMBL_ID>  (29) 
CHEMBL55683

>  <document_journal>  (29) 
Bioorg. Med. Chem. Lett.

>  <bao_endpoint>  (29) 
BAO_0000190

>  <potential_duplicate>  (29) 
False

>  <uo_units>  (29) 
UO_0000065

>  <canonical_smiles>  (29) 
[O-][N+](=O)c1cccc(Nc2nccc(n2)c3ccncc3)c1

>  <parent_molecule_chembl_id>  (29) 
CHEMBL55683

>  <assay_type>  (29) 
B

>  <src_id>  (29) 
1

>  <ligand_efficiency>  (29) 
{u'le': u'0.26', u'bei': u'14.37', u'sei': u'4.37', u'lle': u'1.4'}

>  <standard_flag>  (29) 
True

>  <molecule_chembl_id>  (29) 
CHEMBL55683

>  <target_organism>  (29) 
Homo sapiens

>  <standard_units>  (29) 
nM

>  <record_id>  (29) 
97915

>  <document_chembl_id>  (29) 
CHEMBL1130562

>  <bao_format>  (29) 
BAO_0000357

>  <data_validity_description>  (29) 
None

>  <activity_id>  (29) 
919076

>  <standard_type>  (29) 
IC50

>  <target_chembl_id>  (29) 
CHEMBL1862

>  <data_validity_comment>  (29) 
None

>  <published_value>  (29) 
61

>  <document_year>  (29) 
1997

>  <target_pref_name>  (29) 
Tyrosine-protein kinase ABL

>  <assay_chembl_id>  (29) 
CHEMBL846547

>  <standard_relation>  (29) 
=

>  <assay_description>  (29) 
Inhibition of v-Abl tyrosine kinase.

>  <published_relation>  (29) 
=

>  <standard_value>  (29) 
61000

>  <qudt_units>  (29) 
http://www.openphacts.org/units/Nanomolar

>  <target_tax_id>  (29) 
9606

>  <bao_label>  (29) 
single protein format

>  <published_units>  (29) 
uM

>  <pchembl_value>  (29) 
4.22

>  <published_type>  (29) 
IC50

>  <activity_comment>  (29) 
None

$$$$

     RDKit          

 26 28  0  0  0  0  0  0  0  0999 V2000
    0.0000    0.0000    0.0000 N   0  0  0  0  0  0  0  0  0  0  0  0
    0.0000    0.0000    0.0000 C   0  0  0  0  0  0  0  0  0  0  0  0
    0.0000    0.0000    0.0000 C   0  0  0  0  0  0  0  0  0  0  0  0
    0.0000    0.0000    0.0000 C   0  0  0  0  0  0  0  0  0  0  0  0
    0.0000    0.0000    0.0000 N   0  0  0  0  0  0  0  0  0  0  0  0
    0.0000    0.0000    0.0000 C   0  0  0  0  0  0  0  0  0  0  0  0
    0.0000    0.0000    0.0000 O   0  0  0  0  0  0  0  0  0  0  0  0
    0.0000    0.0000    0.0000 C   0  0  0  0  0  0  0  0  0  0  0  0
    0.0000    0.0000    0.0000 C   0  0  0  0  0  0  0  0  0  0  0  0
    0.0000    0.0000    0.0000 C   0  0  0  0  0  0  0  0  0  0  0  0
    0.0000    0.0000    0.0000 C   0  0  0  0  0  0  0  0  0  0  0  0
    0.0000    0.0000    0.0000 C   0  0  0  0  0  0  0  0  0  0  0  0
    0.0000    0.0000    0.0000 N   0  0  0  0  0  0  0  0  0  0  0  0
    0.0000    0.0000    0.0000 C   0  0  0  0  0  0  0  0  0  0  0  0
    0.0000    0.0000    0.0000 N   0  0  0  0  0  0  0  0  0  0  0  0
    0.0000    0.0000    0.0000 C   0  0  0  0  0  0  0  0  0  0  0  0
    0.0000    0.0000    0.0000 C   0  0  0  0  0  0  0  0  0  0  0  0
    0.0000    0.0000    0.0000 C   0  0  0  0  0  0  0  0  0  0  0  0
    0.0000    0.0000    0.0000 N   0  0  0  0  0  0  0  0  0  0  0  0
    0.0000    0.0000    0.0000 C   0  0  0  0  0  0  0  0  0  0  0  0
    0.0000    0.0000    0.0000 C   0  0  0  0  0  0  0  0  0  0  0  0
    0.0000    0.0000    0.0000 C   0  0  0  0  0  0  0  0  0  0  0  0
    0.0000    0.0000    0.0000 C   0  0  0  0  0  0  0  0  0  0  0  0
    0.0000    0.0000    0.0000 N   0  0  0  0  0  0  0  0  0  0  0  0
    0.0000    0.0000    0.0000 C   0  0  0  0  0  0  0  0  0  0  0  0
    0.0000    0.0000    0.0000 C   0  0  0  0  0  0  0  0  0  0  0  0
  1  2  1  0
  2  3  1  0
  3  4  1  0
  4  5  1  0
  5  6  1  0
  6  7  2  0
  6  8  1  0
  8  9  2  0
  9 10  1  0
 10 11  2  0
 11 12  1  0
 12 13  1  0
 13 14  1  0
 14 15  2  0
 15 16  1  0
 16 17  2  0
 17 18  1  0
 18 19  2  0
 18 20  1  0
 20 21  2  0
 21 22  1  0
 22 23  2  0
 23 24  1  0
 24 25  2  0
 12 26  2  0
 26  8  1  0
 19 14  1  0
 25 20  1  0
M  END
>  <pIC50>  (30) 
6.4

>  <ChEMBL_ID>  (30) 
CHEMBL59099

>  <document_journal>  (30) 
Bioorg. Med. Chem. Lett.

>  <bao_endpoint>  (30) 
BAO_0000190

>  <potential_duplicate>  (30) 
False

>  <uo_units>  (30) 
UO_0000065

>  <canonical_smiles>  (30) 
NCCCNC(=O)c1cccc(Nc2nccc(n2)c3cccnc3)c1

>  <parent_molecule_chembl_id>  (30) 
CHEMBL59099

>  <assay_type>  (30) 
B

>  <src_id>  (30) 
1

>  <ligand_efficiency>  (30) 
{u'le': u'0.34', u'bei': u'18.36', u'sei': u'6.05', u'lle': u'5.04'}

>  <standard_flag>  (30) 
True

>  <molecule_chembl_id>  (30) 
CHEMBL59099

>  <target_organism>  (30) 
Homo sapiens

>  <standard_units>  (30) 
nM

>  <record_id>  (30) 
97924

>  <document_chembl_id>  (30) 
CHEMBL1130562

>  <bao_format>  (30) 
BAO_0000357

>  <data_validity_description>  (30) 
None

>  <activity_id>  (30) 
921286

>  <standard_type>  (30) 
IC50

>  <target_chembl_id>  (30) 
CHEMBL1862

>  <data_validity_comment>  (30) 
None

>  <published_value>  (30) 
0.4

>  <document_year>  (30) 
1997

>  <target_pref_name>  (30) 
Tyrosine-protein kinase ABL

>  <assay_chembl_id>  (30) 
CHEMBL846547

>  <standard_relation>  (30) 
=

>  <assay_description>  (30) 
Inhibition of v-Abl tyrosine kinase.

>  <published_relation>  (30) 
=

>  <standard_value>  (30) 
400

>  <qudt_units>  (30) 
http://www.openphacts.org/units/Nanomolar

>  <target_tax_id>  (30) 
9606

>  <bao_label>  (30) 
single protein format

>  <published_units>  (30) 
uM

>  <pchembl_value>  (30) 
6.4

>  <published_type>  (30) 
IC50

>  <activity_comment>  (30) 
None

$$$$

     RDKit          

 20 22  0  0  0  0  0  0  0  0999 V2000
    0.0000    0.0000    0.0000 N   0  0  0  0  0  0  0  0  0  0  0  0
    0.0000    0.0000    0.0000 C   0  0  0  0  0  0  0  0  0  0  0  0
    0.0000    0.0000    0.0000 C   0  0  0  0  0  0  0  0  0  0  0  0
    0.0000    0.0000    0.0000 C   0  0  0  0  0  0  0  0  0  0  0  0
    0.0000    0.0000    0.0000 C   0  0  0  0  0  0  0  0  0  0  0  0
    0.0000    0.0000    0.0000 C   0  0  0  0  0  0  0  0  0  0  0  0
    0.0000    0.0000    0.0000 N   0  0  0  0  0  0  0  0  0  0  0  0
    0.0000    0.0000    0.0000 C   0  0  0  0  0  0  0  0  0  0  0  0
    0.0000    0.0000    0.0000 N   0  0  0  0  0  0  0  0  0  0  0  0
    0.0000    0.0000    0.0000 C   0  0  0  0  0  0  0  0  0  0  0  0
    0.0000    0.0000    0.0000 C   0  0  0  0  0  0  0  0  0  0  0  0
    0.0000    0.0000    0.0000 C   0  0  0  0  0  0  0  0  0  0  0  0
    0.0000    0.0000    0.0000 N   0  0  0  0  0  0  0  0  0  0  0  0
    0.0000    0.0000    0.0000 C   0  0  0  0  0  0  0  0  0  0  0  0
    0.0000    0.0000    0.0000 C   0  0  0  0  0  0  0  0  0  0  0  0
    0.0000    0.0000    0.0000 C   0  0  0  0  0  0  0  0  0  0  0  0
    0.0000    0.0000    0.0000 N   0  0  0  0  0  0  0  0  0  0  0  0
    0.0000    0.0000    0.0000 C   0  0  0  0  0  0  0  0  0  0  0  0
    0.0000    0.0000    0.0000 C   0  0  0  0  0  0  0  0  0  0  0  0
    0.0000    0.0000    0.0000 C   0  0  0  0  0  0  0  0  0  0  0  0
  1  2  1  0
  2  3  2  0
  3  4  1  0
  4  5  2  0
  5  6  1  0
  6  7  1  0
  7  8  1  0
  8  9  2  0
  9 10  1  0
 10 11  2  0
 11 12  1  0
 12 13  2  0
 12 14  1  0
 14 15  2  0
 15 16  1  0
 16 17  2  0
 17 18  1  0
 18 19  2  0
  6 20  2  0
 20  2  1  0
 13  8  1  0
 19 14  1  0
M  END
>  <pIC50>  (31) 
6.22

>  <ChEMBL_ID>  (31) 
CHEMBL57443

>  <document_journal>  (31) 
Bioorg. Med. Chem. Lett.

>  <bao_endpoint>  (31) 
BAO_0000190

>  <potential_duplicate>  (31) 
False

>  <uo_units>  (31) 
UO_0000065

>  <canonical_smiles>  (31) 
Nc1cccc(Nc2nccc(n2)c3ccncc3)c1

>  <parent_molecule_chembl_id>  (31) 
CHEMBL57443

>  <assay_type>  (31) 
B

>  <src_id>  (31) 
1

>  <ligand_efficiency>  (31) 
{u'le': u'0.42', u'bei': u'23.63', u'sei': u'8.11', u'lle': u'4.05'}

>  <standard_flag>  (31) 
True

>  <molecule_chembl_id>  (31) 
CHEMBL57443

>  <target_organism>  (31) 
Homo sapiens

>  <standard_units>  (31) 
nM

>  <record_id>  (31) 
97908

>  <document_chembl_id>  (31) 
CHEMBL1130562

>  <bao_format>  (31) 
BAO_0000357

>  <data_validity_description>  (31) 
None

>  <activity_id>  (31) 
922562

>  <standard_type>  (31) 
IC50

>  <target_chembl_id>  (31) 
CHEMBL1862

>  <data_validity_comment>  (31) 
None

>  <published_value>  (31) 
0.6

>  <document_year>  (31) 
1997

>  <target_pref_name>  (31) 
Tyrosine-protein kinase ABL

>  <assay_chembl_id>  (31) 
CHEMBL846547

>  <standard_relation>  (31) 
=

>  <assay_description>  (31) 
Inhibition of v-Abl tyrosine kinase.

>  <published_relation>  (31) 
=

>  <standard_value>  (31) 
600

>  <qudt_units>  (31) 
http://www.openphacts.org/units/Nanomolar

>  <target_tax_id>  (31) 
9606

>  <bao_label>  (31) 
single protein format

>  <published_units>  (31) 
uM

>  <pchembl_value>  (31) 
6.22

>  <published_type>  (31) 
IC50

>  <activity_comment>  (31) 
None

$$$$

     RDKit          

 27 29  0  0  0  0  0  0  0  0999 V2000
    0.0000    0.0000    0.0000 C   0  0  0  0  0  0  0  0  0  0  0  0
    0.0000    0.0000    0.0000 C   0  0  0  0  0  0  0  0  0  0  0  0
    0.0000    0.0000    0.0000 C   0  0  0  0  0  0  0  0  0  0  0  0
    0.0000    0.0000    0.0000 C   0  0  0  0  0  0  0  0  0  0  0  0
    0.0000    0.0000    0.0000 C   0  0  0  0  0  0  0  0  0  0  0  0
    0.0000    0.0000    0.0000 C   0  0  0  0  0  0  0  0  0  0  0  0
    0.0000    0.0000    0.0000 O   0  0  0  0  0  0  0  0  0  0  0  0
    0.0000    0.0000    0.0000 N   0  0  0  0  0  0  0  0  0  0  0  0
    0.0000    0.0000    0.0000 C   0  0  0  0  0  0  0  0  0  0  0  0
    0.0000    0.0000    0.0000 C   0  0  0  0  0  0  0  0  0  0  0  0
    0.0000    0.0000    0.0000 C   0  0  0  0  0  0  0  0  0  0  0  0
    0.0000    0.0000    0.0000 C   0  0  0  0  0  0  0  0  0  0  0  0
    0.0000    0.0000    0.0000 C   0  0  0  0  0  0  0  0  0  0  0  0
    0.0000    0.0000    0.0000 N   0  0  0  0  0  0  0  0  0  0  0  0
    0.0000    0.0000    0.0000 C   0  0  0  0  0  0  0  0  0  0  0  0
    0.0000    0.0000    0.0000 N   0  0  0  0  0  0  0  0  0  0  0  0
    0.0000    0.0000    0.0000 C   0  0  0  0  0  0  0  0  0  0  0  0
    0.0000    0.0000    0.0000 C   0  0  0  0  0  0  0  0  0  0  0  0
    0.0000    0.0000    0.0000 C   0  0  0  0  0  0  0  0  0  0  0  0
    0.0000    0.0000    0.0000 N   0  0  0  0  0  0  0  0  0  0  0  0
    0.0000    0.0000    0.0000 C   0  0  0  0  0  0  0  0  0  0  0  0
    0.0000    0.0000    0.0000 C   0  0  0  0  0  0  0  0  0  0  0  0
    0.0000    0.0000    0.0000 C   0  0  0  0  0  0  0  0  0  0  0  0
    0.0000    0.0000    0.0000 C   0  0  0  0  0  0  0  0  0  0  0  0
    0.0000    0.0000    0.0000 N   0  0  0  0  0  0  0  0  0  0  0  0
    0.0000    0.0000    0.0000 C   0  0  0  0  0  0  0  0  0  0  0  0
    0.0000    0.0000    0.0000 C   0  0  0  0  0  0  0  0  0  0  0  0
  1  2  1  0
  2  3  1  0
  3  4  1  0
  4  5  1  0
  5  6  1  0
  6  7  2  0
  6  8  1  0
  8  9  1  0
  9 10  2  0
 10 11  1  0
 11 12  2  0
 12 13  1  0
 13 14  1  0
 14 15  1  0
 15 16  2  0
 16 17  1  0
 17 18  2  0
 18 19  1  0
 19 20  2  0
 19 21  1  0
 21 22  2  0
 22 23  1  0
 23 24  2  0
 24 25  1  0
 25 26  2  0
 13 27  2  0
 27  9  1  0
 20 15  1  0
 26 21  1  0
M  END
>  <pIC50>  (32) 
6.7

>  <ChEMBL_ID>  (32) 
CHEMBL56669

>  <document_journal>  (32) 
Bioorg. Med. Chem. Lett.

>  <bao_endpoint>  (32) 
BAO_0000190

>  <potential_duplicate>  (32) 
False

>  <uo_units>  (32) 
UO_0000065

>  <canonical_smiles>  (32) 
CCCCCC(=O)Nc1cccc(Nc2nccc(n2)c3cccnc3)c1

>  <parent_molecule_chembl_id>  (32) 
CHEMBL56669

>  <assay_type>  (32) 
B

>  <src_id>  (32) 
1

>  <ligand_efficiency>  (32) 
{u'le': u'0.34', u'bei': u'18.53', u'sei': u'8.39', u'lle': u'2.63'}

>  <standard_flag>  (32) 
True

>  <molecule_chembl_id>  (32) 
CHEMBL56669

>  <target_organism>  (32) 
Homo sapiens

>  <standard_units>  (32) 
nM

>  <record_id>  (32) 
97894

>  <document_chembl_id>  (32) 
CHEMBL1130562

>  <bao_format>  (32) 
BAO_0000357

>  <data_validity_description>  (32) 
None

>  <activity_id>  (32) 
926652

>  <standard_type>  (32) 
IC50

>  <target_chembl_id>  (32) 
CHEMBL1862

>  <data_validity_comment>  (32) 
None

>  <published_value>  (32) 
0.2

>  <document_year>  (32) 
1997

>  <target_pref_name>  (32) 
Tyrosine-protein kinase ABL

>  <assay_chembl_id>  (32) 
CHEMBL846547

>  <standard_relation>  (32) 
=

>  <assay_description>  (32) 
Inhibition of v-Abl tyrosine kinase.

>  <published_relation>  (32) 
=

>  <standard_value>  (32) 
200

>  <qudt_units>  (32) 
http://www.openphacts.org/units/Nanomolar

>  <target_tax_id>  (32) 
9606

>  <bao_label>  (32) 
single protein format

>  <published_units>  (32) 
uM

>  <pchembl_value>  (32) 
6.7

>  <published_type>  (32) 
IC50

>  <activity_comment>  (32) 
None

$$$$

     RDKit          

 27 30  0  0  0  0  0  0  0  0999 V2000
    0.0000    0.0000    0.0000 C   0  0  0  0  0  0  0  0  0  0  0  0
    0.0000    0.0000    0.0000 C   0  0  0  0  0  0  0  0  0  0  0  0
    0.0000    0.0000    0.0000 N   0  0  0  0  0  0  0  0  0  0  0  0
    0.0000    0.0000    0.0000 C   0  0  0  0  0  0  0  0  0  0  0  0
    0.0000    0.0000    0.0000 C   0  0  0  0  0  0  0  0  0  0  0  0
    0.0000    0.0000    0.0000 N   0  0  0  0  0  0  0  0  0  0  0  0
    0.0000    0.0000    0.0000 C   0  0  0  0  0  0  0  0  0  0  0  0
    0.0000    0.0000    0.0000 O   0  0  0  0  0  0  0  0  0  0  0  0
    0.0000    0.0000    0.0000 C   0  0  0  0  0  0  0  0  0  0  0  0
    0.0000    0.0000    0.0000 C   0  0  0  0  0  0  0  0  0  0  0  0
    0.0000    0.0000    0.0000 C   0  0  0  0  0  0  0  0  0  0  0  0
    0.0000    0.0000    0.0000 C   0  0  0  0  0  0  0  0  0  0  0  0
    0.0000    0.0000    0.0000 C   0  0  0  0  0  0  0  0  0  0  0  0
    0.0000    0.0000    0.0000 N   0  0  0  0  0  0  0  0  0  0  0  0
    0.0000    0.0000    0.0000 C   0  0  0  0  0  0  0  0  0  0  0  0
    0.0000    0.0000    0.0000 N   0  0  0  0  0  0  0  0  0  0  0  0
    0.0000    0.0000    0.0000 C   0  0  0  0  0  0  0  0  0  0  0  0
    0.0000    0.0000    0.0000 C   0  0  0  0  0  0  0  0  0  0  0  0
    0.0000    0.0000    0.0000 C   0  0  0  0  0  0  0  0  0  0  0  0
    0.0000    0.0000    0.0000 N   0  0  0  0  0  0  0  0  0  0  0  0
    0.0000    0.0000    0.0000 C   0  0  0  0  0  0  0  0  0  0  0  0
    0.0000    0.0000    0.0000 C   0  0  0  0  0  0  0  0  0  0  0  0
    0.0000    0.0000    0.0000 C   0  0  0  0  0  0  0  0  0  0  0  0
    0.0000    0.0000    0.0000 C   0  0  0  0  0  0  0  0  0  0  0  0
    0.0000    0.0000    0.0000 N   0  0  0  0  0  0  0  0  0  0  0  0
    0.0000    0.0000    0.0000 C   0  0  0  0  0  0  0  0  0  0  0  0
    0.0000    0.0000    0.0000 C   0  0  0  0  0  0  0  0  0  0  0  0
  1  2  1  0
  2  3  1  0
  3  4  1  0
  4  5  2  0
  5  6  1  0
  6  7  2  0
  1  8  1  0
  8  9  1  0
  9 10  2  0
 10 11  1  0
 11 12  2  0
 12 13  1  0
 13 14  1  0
 14 15  1  0
 15 16  2  0
 16 17  1  0
 17 18  2  0
 18 19  1  0
 19 20  2  0
 19 21  1  0
 21 22  2  0
 22 23  1  0
 23 24  2  0
 24 25  1  0
 25 26  2  0
 13 27  2  0
  7  3  1  0
 27  9  1  0
 20 15  1  0
 26 21  1  0
M  END
>  <pIC50>  (33) 
6.0

>  <ChEMBL_ID>  (33) 
CHEMBL58436

>  <document_journal>  (33) 
Bioorg. Med. Chem. Lett.

>  <bao_endpoint>  (33) 
BAO_0000190

>  <potential_duplicate>  (33) 
False

>  <uo_units>  (33) 
UO_0000065

>  <canonical_smiles>  (33) 
C(Cn1ccnc1)Oc2cccc(Nc3nccc(n3)c4cccnc4)c2

>  <parent_molecule_chembl_id>  (33) 
CHEMBL58436

>  <assay_type>  (33) 
B

>  <src_id>  (33) 
1

>  <ligand_efficiency>  (33) 
{u'le': u'0.3', u'bei': u'16.74', u'sei': u'7.72', u'lle': u'3.36'}

>  <standard_flag>  (33) 
True

>  <molecule_chembl_id>  (33) 
CHEMBL58436

>  <target_organism>  (33) 
Homo sapiens

>  <standard_units>  (33) 
nM

>  <record_id>  (33) 
97904

>  <document_chembl_id>  (33) 
CHEMBL1130562

>  <bao_format>  (33) 
BAO_0000357

>  <data_validity_description>  (33) 
None

>  <activity_id>  (33) 
928091

>  <standard_type>  (33) 
IC50

>  <target_chembl_id>  (33) 
CHEMBL1862

>  <data_validity_comment>  (33) 
None

>  <published_value>  (33) 
1

>  <document_year>  (33) 
1997

>  <target_pref_name>  (33) 
Tyrosine-protein kinase ABL

>  <assay_chembl_id>  (33) 
CHEMBL846547

>  <standard_relation>  (33) 
=

>  <assay_description>  (33) 
Inhibition of v-Abl tyrosine kinase.

>  <published_relation>  (33) 
=

>  <standard_value>  (33) 
1000

>  <qudt_units>  (33) 
http://www.openphacts.org/units/Nanomolar

>  <target_tax_id>  (33) 
9606

>  <bao_label>  (33) 
single protein format

>  <published_units>  (33) 
uM

>  <pchembl_value>  (33) 
6

>  <published_type>  (33) 
IC50

>  <activity_comment>  (33) 
None

$$$$

     RDKit          

 29 32  0  0  0  0  0  0  0  0999 V2000
    0.0000    0.0000    0.0000 C   0  0  0  0  0  0  0  0  0  0  0  0
    0.0000    0.0000    0.0000 C   0  0  0  0  0  0  0  0  0  0  0  0
    0.0000    0.0000    0.0000 C   0  0  0  0  0  0  0  0  0  0  0  0
    0.0000    0.0000    0.0000 C   0  0  0  0  0  0  0  0  0  0  0  0
    0.0000    0.0000    0.0000 C   0  0  0  0  0  0  0  0  0  0  0  0
    0.0000    0.0000    0.0000 C   0  0  0  0  0  0  0  0  0  0  0  0
    0.0000    0.0000    0.0000 C   0  0  0  0  0  0  0  0  0  0  0  0
    0.0000    0.0000    0.0000 C   0  0  0  0  0  0  0  0  0  0  0  0
    0.0000    0.0000    0.0000 O   0  0  0  0  0  0  0  0  0  0  0  0
    0.0000    0.0000    0.0000 N   0  0  0  0  0  0  0  0  0  0  0  0
    0.0000    0.0000    0.0000 C   0  0  0  0  0  0  0  0  0  0  0  0
    0.0000    0.0000    0.0000 C   0  0  0  0  0  0  0  0  0  0  0  0
    0.0000    0.0000    0.0000 C   0  0  0  0  0  0  0  0  0  0  0  0
    0.0000    0.0000    0.0000 C   0  0  0  0  0  0  0  0  0  0  0  0
    0.0000    0.0000    0.0000 C   0  0  0  0  0  0  0  0  0  0  0  0
    0.0000    0.0000    0.0000 N   0  0  0  0  0  0  0  0  0  0  0  0
    0.0000    0.0000    0.0000 C   0  0  0  0  0  0  0  0  0  0  0  0
    0.0000    0.0000    0.0000 N   0  0  0  0  0  0  0  0  0  0  0  0
    0.0000    0.0000    0.0000 C   0  0  0  0  0  0  0  0  0  0  0  0
    0.0000    0.0000    0.0000 C   0  0  0  0  0  0  0  0  0  0  0  0
    0.0000    0.0000    0.0000 C   0  0  0  0  0  0  0  0  0  0  0  0
    0.0000    0.0000    0.0000 N   0  0  0  0  0  0  0  0  0  0  0  0
    0.0000    0.0000    0.0000 C   0  0  0  0  0  0  0  0  0  0  0  0
    0.0000    0.0000    0.0000 C   0  0  0  0  0  0  0  0  0  0  0  0
    0.0000    0.0000    0.0000 C   0  0  0  0  0  0  0  0  0  0  0  0
    0.0000    0.0000    0.0000 C   0  0  0  0  0  0  0  0  0  0  0  0
    0.0000    0.0000    0.0000 N   0  0  0  0  0  0  0  0  0  0  0  0
    0.0000    0.0000    0.0000 C   0  0  0  0  0  0  0  0  0  0  0  0
    0.0000    0.0000    0.0000 C   0  0  0  0  0  0  0  0  0  0  0  0
  1  2  1  0
  2  3  2  0
  3  4  1  0
  4  5  2  0
  5  6  1  0
  6  7  2  0
  5  8  1  0
  8  9  2  0
  8 10  1  0
 10 11  1  0
 11 12  2  0
 12 13  1  0
 13 14  2  0
 14 15  1  0
 15 16  1  0
 16 17  1  0
 17 18  2  0
 18 19  1  0
 19 20  2  0
 20 21  1  0
 21 22  2  0
 21 23  1  0
 23 24  2  0
 24 25  1  0
 25 26  2  0
 26 27  1  0
 27 28  2  0
 15 29  2  0
  7  2  1  0
 29 11  1  0
 22 17  1  0
 28 23  1  0
M  END
>  <pIC50>  (34) 
6.0

>  <ChEMBL_ID>  (34) 
CHEMBL59036

>  <document_journal>  (34) 
Bioorg. Med. Chem. Lett.

>  <bao_endpoint>  (34) 
BAO_0000190

>  <potential_duplicate>  (34) 
False

>  <uo_units>  (34) 
UO_0000065

>  <canonical_smiles>  (34) 
Cc1ccc(cc1)C(=O)Nc2cccc(Nc3nccc(n3)c4cccnc4)c2

>  <parent_molecule_chembl_id>  (34) 
CHEMBL59036

>  <assay_type>  (34) 
B

>  <src_id>  (34) 
1

>  <ligand_efficiency>  (34) 
{u'le': u'0.28', u'bei': u'15.73', u'sei': u'7.52', u'lle': u'1.81'}

>  <standard_flag>  (34) 
True

>  <molecule_chembl_id>  (34) 
CHEMBL59036

>  <target_organism>  (34) 
Homo sapiens

>  <standard_units>  (34) 
nM

>  <record_id>  (34) 
97903

>  <document_chembl_id>  (34) 
CHEMBL1130562

>  <bao_format>  (34) 
BAO_0000357

>  <data_validity_description>  (34) 
None

>  <activity_id>  (34) 
928098

>  <standard_type>  (34) 
IC50

>  <target_chembl_id>  (34) 
CHEMBL1862

>  <data_validity_comment>  (34) 
None

>  <published_value>  (34) 
1

>  <document_year>  (34) 
1997

>  <target_pref_name>  (34) 
Tyrosine-protein kinase ABL

>  <assay_chembl_id>  (34) 
CHEMBL846547

>  <standard_relation>  (34) 
=

>  <assay_description>  (34) 
Inhibition of v-Abl tyrosine kinase.

>  <published_relation>  (34) 
=

>  <standard_value>  (34) 
1000

>  <qudt_units>  (34) 
http://www.openphacts.org/units/Nanomolar

>  <target_tax_id>  (34) 
9606

>  <bao_label>  (34) 
single protein format

>  <published_units>  (34) 
uM

>  <pchembl_value>  (34) 
6

>  <published_type>  (34) 
IC50

>  <activity_comment>  (34) 
None

$$$$

     RDKit          

 30 33  0  0  0  0  0  0  0  0999 V2000
    0.0000    0.0000    0.0000 C   0  0  0  0  0  0  0  0  0  0  0  0
    0.0000    0.0000    0.0000 O   0  0  0  0  0  0  0  0  0  0  0  0
    0.0000    0.0000    0.0000 C   0  0  0  0  0  0  0  0  0  0  0  0
    0.0000    0.0000    0.0000 C   0  0  0  0  0  0  0  0  0  0  0  0
    0.0000    0.0000    0.0000 C   0  0  0  0  0  0  0  0  0  0  0  0
    0.0000    0.0000    0.0000 C   0  0  0  0  0  0  0  0  0  0  0  0
    0.0000    0.0000    0.0000 C   0  0  0  0  0  0  0  0  0  0  0  0
    0.0000    0.0000    0.0000 C   0  0  0  0  0  0  0  0  0  0  0  0
    0.0000    0.0000    0.0000 C   0  0  0  0  0  0  0  0  0  0  0  0
    0.0000    0.0000    0.0000 O   0  0  0  0  0  0  0  0  0  0  0  0
    0.0000    0.0000    0.0000 N   0  0  0  0  0  0  0  0  0  0  0  0
    0.0000    0.0000    0.0000 C   0  0  0  0  0  0  0  0  0  0  0  0
    0.0000    0.0000    0.0000 C   0  0  0  0  0  0  0  0  0  0  0  0
    0.0000    0.0000    0.0000 C   0  0  0  0  0  0  0  0  0  0  0  0
    0.0000    0.0000    0.0000 C   0  0  0  0  0  0  0  0  0  0  0  0
    0.0000    0.0000    0.0000 C   0  0  0  0  0  0  0  0  0  0  0  0
    0.0000    0.0000    0.0000 N   0  0  0  0  0  0  0  0  0  0  0  0
    0.0000    0.0000    0.0000 C   0  0  0  0  0  0  0  0  0  0  0  0
    0.0000    0.0000    0.0000 N   0  0  0  0  0  0  0  0  0  0  0  0
    0.0000    0.0000    0.0000 C   0  0  0  0  0  0  0  0  0  0  0  0
    0.0000    0.0000    0.0000 C   0  0  0  0  0  0  0  0  0  0  0  0
    0.0000    0.0000    0.0000 C   0  0  0  0  0  0  0  0  0  0  0  0
    0.0000    0.0000    0.0000 N   0  0  0  0  0  0  0  0  0  0  0  0
    0.0000    0.0000    0.0000 C   0  0  0  0  0  0  0  0  0  0  0  0
    0.0000    0.0000    0.0000 C   0  0  0  0  0  0  0  0  0  0  0  0
    0.0000    0.0000    0.0000 C   0  0  0  0  0  0  0  0  0  0  0  0
    0.0000    0.0000    0.0000 C   0  0  0  0  0  0  0  0  0  0  0  0
    0.0000    0.0000    0.0000 N   0  0  0  0  0  0  0  0  0  0  0  0
    0.0000    0.0000    0.0000 C   0  0  0  0  0  0  0  0  0  0  0  0
    0.0000    0.0000    0.0000 C   0  0  0  0  0  0  0  0  0  0  0  0
  1  2  1  0
  2  3  1  0
  3  4  2  0
  4  5  1  0
  5  6  2  0
  6  7  1  0
  7  8  2  0
  8  9  1  0
  9 10  2  0
  9 11  1  0
 11 12  1  0
 12 13  2  0
 13 14  1  0
 14 15  2  0
 15 16  1  0
 16 17  1  0
 17 18  1  0
 18 19  2  0
 19 20  1  0
 20 21  2  0
 21 22  1  0
 22 23  2  0
 22 24  1  0
 24 25  2  0
 25 26  1  0
 26 27  2  0
 27 28  1  0
 28 29  2  0
 16 30  2  0
  8  3  1  0
 30 12  1  0
 23 18  1  0
 29 24  1  0
M  END
>  <pIC50>  (35) 
5.72

>  <ChEMBL_ID>  (35) 
CHEMBL299707

>  <document_journal>  (35) 
Bioorg. Med. Chem. Lett.

>  <bao_endpoint>  (35) 
BAO_0000190

>  <potential_duplicate>  (35) 
False

>  <uo_units>  (35) 
UO_0000065

>  <canonical_smiles>  (35) 
COc1ccccc1C(=O)Nc2cccc(Nc3nccc(n3)c4cccnc4)c2

>  <parent_molecule_chembl_id>  (35) 
CHEMBL299707

>  <assay_type>  (35) 
B

>  <src_id>  (35) 
1

>  <ligand_efficiency>  (35) 
{u'le': u'0.26', u'bei': u'14.4', u'sei': u'6.43', u'lle': u'2.03'}

>  <standard_flag>  (35) 
True

>  <molecule_chembl_id>  (35) 
CHEMBL299707

>  <target_organism>  (35) 
Homo sapiens

>  <standard_units>  (35) 
nM

>  <record_id>  (35) 
97923

>  <document_chembl_id>  (35) 
CHEMBL1130562

>  <bao_format>  (35) 
BAO_0000357

>  <data_validity_description>  (35) 
None

>  <activity_id>  (35) 
929354

>  <standard_type>  (35) 
IC50

>  <target_chembl_id>  (35) 
CHEMBL1862

>  <data_validity_comment>  (35) 
None

>  <published_value>  (35) 
1.9

>  <document_year>  (35) 
1997

>  <target_pref_name>  (35) 
Tyrosine-protein kinase ABL

>  <assay_chembl_id>  (35) 
CHEMBL846547

>  <standard_relation>  (35) 
=

>  <assay_description>  (35) 
Inhibition of v-Abl tyrosine kinase.

>  <published_relation>  (35) 
=

>  <standard_value>  (35) 
1900

>  <qudt_units>  (35) 
http://www.openphacts.org/units/Nanomolar

>  <target_tax_id>  (35) 
9606

>  <bao_label>  (35) 
single protein format

>  <published_units>  (35) 
uM

>  <pchembl_value>  (35) 
5.72

>  <published_type>  (35) 
IC50

>  <activity_comment>  (35) 
None

$$$$

     RDKit          

 24 27  0  0  0  0  0  0  0  0999 V2000
    0.0000    0.0000    0.0000 N   0  0  0  0  0  0  0  0  0  0  0  0
    0.0000    0.0000    0.0000 C   0  0  0  0  0  0  0  0  0  0  0  0
    0.0000    0.0000    0.0000 C   0  0  0  0  0  0  0  0  0  0  0  0
    0.0000    0.0000    0.0000 C   0  0  0  0  0  0  0  0  0  0  0  0
    0.0000    0.0000    0.0000 C   0  0  0  0  0  0  0  0  0  0  0  0
    0.0000    0.0000    0.0000 C   0  0  0  0  0  0  0  0  0  0  0  0
    0.0000    0.0000    0.0000 C   0  0  0  0  0  0  0  0  0  0  0  0
    0.0000    0.0000    0.0000 N   0  0  0  0  0  0  0  0  0  0  0  0
    0.0000    0.0000    0.0000 C   0  0  0  0  0  0  0  0  0  0  0  0
    0.0000    0.0000    0.0000 C   0  0  0  0  0  0  0  0  0  0  0  0
    0.0000    0.0000    0.0000 N   0  0  0  0  0  0  0  0  0  0  0  0
    0.0000    0.0000    0.0000 C   0  0  0  0  0  0  0  0  0  0  0  0
    0.0000    0.0000    0.0000 C   0  0  0  0  0  0  0  0  0  0  0  0
    0.0000    0.0000    0.0000 N   0  0  0  0  0  0  0  0  0  0  0  0
    0.0000    0.0000    0.0000 C   0  0  0  0  0  0  0  0  0  0  0  0
    0.0000    0.0000    0.0000 C   0  0  0  0  0  0  0  0  0  0  0  0
    0.0000    0.0000    0.0000 C   0  0  0  0  0  0  0  0  0  0  0  0
    0.0000    0.0000    0.0000 N   0  0  0  0  0  0  0  0  0  0  0  0
    0.0000    0.0000    0.0000 C   0  0  0  0  0  0  0  0  0  0  0  0
    0.0000    0.0000    0.0000 C   0  0  0  0  0  0  0  0  0  0  0  0
    0.0000    0.0000    0.0000 C   0  0  0  0  0  0  0  0  0  0  0  0
    0.0000    0.0000    0.0000 C   0  0  0  0  0  0  0  0  0  0  0  0
    0.0000    0.0000    0.0000 N   0  0  0  0  0  0  0  0  0  0  0  0
    0.0000    0.0000    0.0000 C   0  0  0  0  0  0  0  0  0  0  0  0
  1  2  1  0
  2  3  2  0
  3  4  1  0
  4  5  2  0
  5  6  1  0
  6  7  2  0
  6  8  1  0
  8  9  1  0
  9 10  2  0
 10 11  1  0
 11 12  2  0
  1 13  1  0
 13 14  2  0
 14 15  1  0
 15 16  2  0
 16 17  1  0
 17 18  2  0
 17 19  1  0
 19 20  2  0
 20 21  1  0
 21 22  2  0
 22 23  1  0
 23 24  2  0
  7  2  1  0
 12  8  1  0
 18 13  1  0
 24 19  1  0
M  END
>  <pIC50>  (36) 
5.48

>  <ChEMBL_ID>  (36) 
CHEMBL291963

>  <document_journal>  (36) 
Bioorg. Med. Chem. Lett.

>  <bao_endpoint>  (36) 
BAO_0000190

>  <potential_duplicate>  (36) 
False

>  <uo_units>  (36) 
UO_0000065

>  <canonical_smiles>  (36) 
N(c1cccc(c1)n2ccnc2)c3nccc(n3)c4cccnc4

>  <parent_molecule_chembl_id>  (36) 
CHEMBL291963

>  <assay_type>  (36) 
B

>  <src_id>  (36) 
1

>  <ligand_efficiency>  (36) 
{u'le': u'0.31', u'bei': u'17.44', u'sei': u'8', u'lle': u'2.89'}

>  <standard_flag>  (36) 
True

>  <molecule_chembl_id>  (36) 
CHEMBL291963

>  <target_organism>  (36) 
Homo sapiens

>  <standard_units>  (36) 
nM

>  <record_id>  (36) 
97921

>  <document_chembl_id>  (36) 
CHEMBL1130562

>  <bao_format>  (36) 
BAO_0000357

>  <data_validity_description>  (36) 
None

>  <activity_id>  (36) 
929361

>  <standard_type>  (36) 
IC50

>  <target_chembl_id>  (36) 
CHEMBL1862

>  <data_validity_comment>  (36) 
None

>  <published_value>  (36) 
3.3

>  <document_year>  (36) 
1997

>  <target_pref_name>  (36) 
Tyrosine-protein kinase ABL

>  <assay_chembl_id>  (36) 
CHEMBL846547

>  <standard_relation>  (36) 
=

>  <assay_description>  (36) 
Inhibition of v-Abl tyrosine kinase.

>  <published_relation>  (36) 
=

>  <standard_value>  (36) 
3300

>  <qudt_units>  (36) 
http://www.openphacts.org/units/Nanomolar

>  <target_tax_id>  (36) 
9606

>  <bao_label>  (36) 
single protein format

>  <published_units>  (36) 
uM

>  <pchembl_value>  (36) 
5.48

>  <published_type>  (36) 
IC50

>  <activity_comment>  (36) 
None

$$$$

     RDKit          

 28 31  0  0  0  0  0  0  0  0999 V2000
    0.0000    0.0000    0.0000 O   0  0  0  0  0  0  0  0  0  0  0  0
    0.0000    0.0000    0.0000 C   0  0  0  0  0  0  0  0  0  0  0  0
    0.0000    0.0000    0.0000 N   0  0  0  0  0  0  0  0  0  0  0  0
    0.0000    0.0000    0.0000 C   0  0  0  0  0  0  0  0  0  0  0  0
    0.0000    0.0000    0.0000 C   0  0  0  0  0  0  0  0  0  0  0  0
    0.0000    0.0000    0.0000 C   0  0  0  0  0  0  0  0  0  0  0  0
    0.0000    0.0000    0.0000 C   0  0  0  0  0  0  0  0  0  0  0  0
    0.0000    0.0000    0.0000 C   0  0  0  0  0  0  0  0  0  0  0  0
    0.0000    0.0000    0.0000 N   0  0  0  0  0  0  0  0  0  0  0  0
    0.0000    0.0000    0.0000 C   0  0  0  0  0  0  0  0  0  0  0  0
    0.0000    0.0000    0.0000 N   0  0  0  0  0  0  0  0  0  0  0  0
    0.0000    0.0000    0.0000 C   0  0  0  0  0  0  0  0  0  0  0  0
    0.0000    0.0000    0.0000 C   0  0  0  0  0  0  0  0  0  0  0  0
    0.0000    0.0000    0.0000 C   0  0  0  0  0  0  0  0  0  0  0  0
    0.0000    0.0000    0.0000 N   0  0  0  0  0  0  0  0  0  0  0  0
    0.0000    0.0000    0.0000 C   0  0  0  0  0  0  0  0  0  0  0  0
    0.0000    0.0000    0.0000 C   0  0  0  0  0  0  0  0  0  0  0  0
    0.0000    0.0000    0.0000 C   0  0  0  0  0  0  0  0  0  0  0  0
    0.0000    0.0000    0.0000 C   0  0  0  0  0  0  0  0  0  0  0  0
    0.0000    0.0000    0.0000 N   0  0  0  0  0  0  0  0  0  0  0  0
    0.0000    0.0000    0.0000 C   0  0  0  0  0  0  0  0  0  0  0  0
    0.0000    0.0000    0.0000 C   0  0  0  0  0  0  0  0  0  0  0  0
    0.0000    0.0000    0.0000 C   0  0  0  0  0  0  0  0  0  0  0  0
    0.0000    0.0000    0.0000 C   0  0  0  0  0  0  0  0  0  0  0  0
    0.0000    0.0000    0.0000 C   0  0  0  0  0  0  0  0  0  0  0  0
    0.0000    0.0000    0.0000 C   0  0  0  0  0  0  0  0  0  0  0  0
    0.0000    0.0000    0.0000 C   0  0  0  0  0  0  0  0  0  0  0  0
    0.0000    0.0000    0.0000 N   0  0  0  0  0  0  0  0  0  0  0  0
  1  2  2  0
  2  3  1  0
  3  4  1  0
  4  5  2  0
  5  6  1  0
  6  7  2  0
  7  8  1  0
  8  9  1  0
  9 10  1  0
 10 11  2  0
 11 12  1  0
 12 13  2  0
 13 14  1  0
 14 15  2  0
 14 16  1  0
 16 17  2  0
 17 18  1  0
 18 19  2  0
 19 20  1  0
 20 21  2  0
  8 22  2  0
  2 23  1  0
 23 24  2  0
 24 25  1  0
 25 26  2  0
 26 27  1  0
 27 28  2  0
 22  4  1  0
 15 10  1  0
 21 16  1  0
 28 23  1  0
M  END
>  <pIC50>  (37) 
5.42

>  <ChEMBL_ID>  (37) 
CHEMBL292866

>  <document_journal>  (37) 
Bioorg. Med. Chem. Lett.

>  <bao_endpoint>  (37) 
BAO_0000190

>  <potential_duplicate>  (37) 
False

>  <uo_units>  (37) 
UO_0000065

>  <canonical_smiles>  (37) 
O=C(Nc1cccc(Nc2nccc(n2)c3cccnc3)c1)c4ccccn4

>  <parent_molecule_chembl_id>  (37) 
CHEMBL292866

>  <assay_type>  (37) 
B

>  <src_id>  (37) 
1

>  <ligand_efficiency>  (37) 
{u'le': u'0.26', u'bei': u'14.71', u'sei': u'5.85', u'lle': u'2.44'}

>  <standard_flag>  (37) 
True

>  <molecule_chembl_id>  (37) 
CHEMBL292866

>  <target_organism>  (37) 
Homo sapiens

>  <standard_units>  (37) 
nM

>  <record_id>  (37) 
97909

>  <document_chembl_id>  (37) 
CHEMBL1130562

>  <bao_format>  (37) 
BAO_0000357

>  <data_validity_description>  (37) 
None

>  <activity_id>  (37) 
929368

>  <standard_type>  (37) 
IC50

>  <target_chembl_id>  (37) 
CHEMBL1862

>  <data_validity_comment>  (37) 
None

>  <published_value>  (37) 
3.8

>  <document_year>  (37) 
1997

>  <target_pref_name>  (37) 
Tyrosine-protein kinase ABL

>  <assay_chembl_id>  (37) 
CHEMBL846547

>  <standard_relation>  (37) 
=

>  <assay_description>  (37) 
Inhibition of v-Abl tyrosine kinase.

>  <published_relation>  (37) 
=

>  <standard_value>  (37) 
3800

>  <qudt_units>  (37) 
http://www.openphacts.org/units/Nanomolar

>  <target_tax_id>  (37) 
9606

>  <bao_label>  (37) 
single protein format

>  <published_units>  (37) 
uM

>  <pchembl_value>  (37) 
5.42

>  <published_type>  (37) 
IC50

>  <activity_comment>  (37) 
None

$$$$

     RDKit          

 23 25  0  0  0  0  0  0  0  0999 V2000
    0.0000    0.0000    0.0000 C   0  0  0  0  0  0  0  0  0  0  0  0
    0.0000    0.0000    0.0000 O   0  0  0  0  0  0  0  0  0  0  0  0
    0.0000    0.0000    0.0000 C   0  0  0  0  0  0  0  0  0  0  0  0
    0.0000    0.0000    0.0000 O   0  0  0  0  0  0  0  0  0  0  0  0
    0.0000    0.0000    0.0000 C   0  0  0  0  0  0  0  0  0  0  0  0
    0.0000    0.0000    0.0000 C   0  0  0  0  0  0  0  0  0  0  0  0
    0.0000    0.0000    0.0000 C   0  0  0  0  0  0  0  0  0  0  0  0
    0.0000    0.0000    0.0000 C   0  0  0  0  0  0  0  0  0  0  0  0
    0.0000    0.0000    0.0000 C   0  0  0  0  0  0  0  0  0  0  0  0
    0.0000    0.0000    0.0000 N   0  0  0  0  0  0  0  0  0  0  0  0
    0.0000    0.0000    0.0000 C   0  0  0  0  0  0  0  0  0  0  0  0
    0.0000    0.0000    0.0000 N   0  0  0  0  0  0  0  0  0  0  0  0
    0.0000    0.0000    0.0000 C   0  0  0  0  0  0  0  0  0  0  0  0
    0.0000    0.0000    0.0000 C   0  0  0  0  0  0  0  0  0  0  0  0
    0.0000    0.0000    0.0000 C   0  0  0  0  0  0  0  0  0  0  0  0
    0.0000    0.0000    0.0000 N   0  0  0  0  0  0  0  0  0  0  0  0
    0.0000    0.0000    0.0000 C   0  0  0  0  0  0  0  0  0  0  0  0
    0.0000    0.0000    0.0000 C   0  0  0  0  0  0  0  0  0  0  0  0
    0.0000    0.0000    0.0000 C   0  0  0  0  0  0  0  0  0  0  0  0
    0.0000    0.0000    0.0000 C   0  0  0  0  0  0  0  0  0  0  0  0
    0.0000    0.0000    0.0000 N   0  0  0  0  0  0  0  0  0  0  0  0
    0.0000    0.0000    0.0000 C   0  0  0  0  0  0  0  0  0  0  0  0
    0.0000    0.0000    0.0000 C   0  0  0  0  0  0  0  0  0  0  0  0
  1  2  1  0
  2  3  1  0
  3  4  2  0
  3  5  1  0
  5  6  2  0
  6  7  1  0
  7  8  2  0
  8  9  1  0
  9 10  1  0
 10 11  1  0
 11 12  2  0
 12 13  1  0
 13 14  2  0
 14 15  1  0
 15 16  2  0
 15 17  1  0
 17 18  2  0
 18 19  1  0
 19 20  2  0
 20 21  1  0
 21 22  2  0
  9 23  2  0
 23  5  1  0
 16 11  1  0
 22 17  1  0
M  END
>  <pIC50>  (38) 
5.29

>  <ChEMBL_ID>  (38) 
CHEMBL56671

>  <document_journal>  (38) 
Bioorg. Med. Chem. Lett.

>  <bao_endpoint>  (38) 
BAO_0000190

>  <potential_duplicate>  (38) 
False

>  <uo_units>  (38) 
UO_0000065

>  <canonical_smiles>  (38) 
COC(=O)c1cccc(Nc2nccc(n2)c3cccnc3)c1

>  <parent_molecule_chembl_id>  (38) 
CHEMBL56671

>  <assay_type>  (38) 
B

>  <src_id>  (38) 
1

>  <ligand_efficiency>  (38) 
{u'le': u'0.31', u'bei': u'17.28', u'sei': u'6.87', u'lle': u'2.52'}

>  <standard_flag>  (38) 
True

>  <molecule_chembl_id>  (38) 
CHEMBL56671

>  <target_organism>  (38) 
Homo sapiens

>  <standard_units>  (38) 
nM

>  <record_id>  (38) 
97920

>  <document_chembl_id>  (38) 
CHEMBL1130562

>  <bao_format>  (38) 
BAO_0000357

>  <data_validity_description>  (38) 
None

>  <activity_id>  (38) 
930627

>  <standard_type>  (38) 
IC50

>  <target_chembl_id>  (38) 
CHEMBL1862

>  <data_validity_comment>  (38) 
None

>  <published_value>  (38) 
5.1

>  <document_year>  (38) 
1997

>  <target_pref_name>  (38) 
Tyrosine-protein kinase ABL

>  <assay_chembl_id>  (38) 
CHEMBL846547

>  <standard_relation>  (38) 
=

>  <assay_description>  (38) 
Inhibition of v-Abl tyrosine kinase.

>  <published_relation>  (38) 
=

>  <standard_value>  (38) 
5100

>  <qudt_units>  (38) 
http://www.openphacts.org/units/Nanomolar

>  <target_tax_id>  (38) 
9606

>  <bao_label>  (38) 
single protein format

>  <published_units>  (38) 
uM

>  <pchembl_value>  (38) 
5.29

>  <published_type>  (38) 
IC50

>  <activity_comment>  (38) 
None

$$$$

     RDKit          

 29 32  0  0  0  0  0  0  0  0999 V2000
    0.0000    0.0000    0.0000 F   0  0  0  0  0  0  0  0  0  0  0  0
    0.0000    0.0000    0.0000 C   0  0  0  0  0  0  0  0  0  0  0  0
    0.0000    0.0000    0.0000 F   0  0  0  0  0  0  0  0  0  0  0  0
    0.0000    0.0000    0.0000 C   0  0  0  0  0  0  0  0  0  0  0  0
    0.0000    0.0000    0.0000 F   0  0  0  0  0  0  0  0  0  0  0  0
    0.0000    0.0000    0.0000 F   0  0  0  0  0  0  0  0  0  0  0  0
    0.0000    0.0000    0.0000 O   0  0  0  0  0  0  0  0  0  0  0  0
    0.0000    0.0000    0.0000 C   0  0  0  0  0  0  0  0  0  0  0  0
    0.0000    0.0000    0.0000 C   0  0  0  0  0  0  0  0  0  0  0  0
    0.0000    0.0000    0.0000 C   0  0  0  0  0  0  0  0  0  0  0  0
    0.0000    0.0000    0.0000 C   0  0  0  0  0  0  0  0  0  0  0  0
    0.0000    0.0000    0.0000 C   0  0  0  0  0  0  0  0  0  0  0  0
    0.0000    0.0000    0.0000 N   0  0  0  0  0  0  0  0  0  0  0  0
    0.0000    0.0000    0.0000 C   0  0  0  0  0  0  0  0  0  0  0  0
    0.0000    0.0000    0.0000 N   0  0  0  0  0  0  0  0  0  0  0  0
    0.0000    0.0000    0.0000 C   0  0  0  0  0  0  0  0  0  0  0  0
    0.0000    0.0000    0.0000 C   0  0  0  0  0  0  0  0  0  0  0  0
    0.0000    0.0000    0.0000 C   0  0  0  0  0  0  0  0  0  0  0  0
    0.0000    0.0000    0.0000 N   0  0  0  0  0  0  0  0  0  0  0  0
    0.0000    0.0000    0.0000 C   0  0  0  0  0  0  0  0  0  0  0  0
    0.0000    0.0000    0.0000 C   0  0  0  0  0  0  0  0  0  0  0  0
    0.0000    0.0000    0.0000 N   0  0  0  0  0  0  0  0  0  0  0  0
    0.0000    0.0000    0.0000 C   0  0  0  0  0  0  0  0  0  0  0  0
    0.0000    0.0000    0.0000 C   0  0  0  0  0  0  0  0  0  0  0  0
    0.0000    0.0000    0.0000 C   0  0  0  0  0  0  0  0  0  0  0  0
    0.0000    0.0000    0.0000 C   0  0  0  0  0  0  0  0  0  0  0  0
    0.0000    0.0000    0.0000 C   0  0  0  0  0  0  0  0  0  0  0  0
    0.0000    0.0000    0.0000 C   0  0  0  0  0  0  0  0  0  0  0  0
    0.0000    0.0000    0.0000 C   0  0  0  0  0  0  0  0  0  0  0  0
  1  2  1  0
  2  3  1  0
  2  4  1  0
  4  5  1  0
  4  6  1  0
  4  7  1  0
  7  8  1  0
  8  9  2  0
  9 10  1  0
 10 11  2  0
 11 12  1  0
 12 13  1  0
 13 14  1  0
 14 15  2  0
 15 16  1  0
 16 17  2  0
 17 18  1  0
 18 19  2  0
 18 20  1  0
 20 21  2  0
 21 22  1  0
 22 23  1  0
 23 24  2  0
 24 25  1  0
 25 26  2  0
 26 27  1  0
 27 28  2  0
 12 29  2  0
 29  8  1  0
 19 14  1  0
 28 20  1  0
 28 23  1  0
M  END
>  <pIC50>  (39) 
6.43

>  <ChEMBL_ID>  (39) 
CHEMBL55379

>  <document_journal>  (39) 
Bioorg. Med. Chem. Lett.

>  <bao_endpoint>  (39) 
BAO_0000190

>  <potential_duplicate>  (39) 
False

>  <uo_units>  (39) 
UO_0000065

>  <canonical_smiles>  (39) 
FC(F)C(F)(F)Oc1cccc(Nc2nccc(n2)c3c[nH]c4ccccc34)c1

>  <parent_molecule_chembl_id>  (39) 
CHEMBL55379

>  <assay_type>  (39) 
B

>  <src_id>  (39) 
1

>  <ligand_efficiency>  (39) 
{u'le': u'0.3', u'bei': u'15.99', u'sei': u'10.24', u'lle': u'0.59'}

>  <standard_flag>  (39) 
True

>  <molecule_chembl_id>  (39) 
CHEMBL55379

>  <target_organism>  (39) 
Homo sapiens

>  <standard_units>  (39) 
nM

>  <record_id>  (39) 
97927

>  <document_chembl_id>  (39) 
CHEMBL1130562

>  <bao_format>  (39) 
BAO_0000357

>  <data_validity_description>  (39) 
None

>  <activity_id>  (39) 
931990

>  <standard_type>  (39) 
IC50

>  <target_chembl_id>  (39) 
CHEMBL1862

>  <data_validity_comment>  (39) 
None

>  <published_value>  (39) 
0.37

>  <document_year>  (39) 
1997

>  <target_pref_name>  (39) 
Tyrosine-protein kinase ABL

>  <assay_chembl_id>  (39) 
CHEMBL846547

>  <standard_relation>  (39) 
=

>  <assay_description>  (39) 
Inhibition of v-Abl tyrosine kinase.

>  <published_relation>  (39) 
=

>  <standard_value>  (39) 
370

>  <qudt_units>  (39) 
http://www.openphacts.org/units/Nanomolar

>  <target_tax_id>  (39) 
9606

>  <bao_label>  (39) 
single protein format

>  <published_units>  (39) 
uM

>  <pchembl_value>  (39) 
6.43

>  <published_type>  (39) 
IC50

>  <activity_comment>  (39) 
None

$$$$

     RDKit          

 31 34  0  0  0  0  0  0  0  0999 V2000
    0.0000    0.0000    0.0000 O   0  0  0  0  0  0  0  0  0  0  0  0
    0.0000    0.0000    0.0000 C   0  0  0  0  0  0  0  0  0  0  0  0
    0.0000    0.0000    0.0000 O   0  0  0  0  0  0  0  0  0  0  0  0
    0.0000    0.0000    0.0000 C   0  0  0  0  0  0  0  0  0  0  0  0
    0.0000    0.0000    0.0000 C   0  0  0  0  0  0  0  0  0  0  0  0
    0.0000    0.0000    0.0000 C   0  0  0  0  0  0  0  0  0  0  0  0
    0.0000    0.0000    0.0000 C   0  0  0  0  0  0  0  0  0  0  0  0
    0.0000    0.0000    0.0000 C   0  0  0  0  0  0  0  0  0  0  0  0
    0.0000    0.0000    0.0000 C   0  0  0  0  0  0  0  0  0  0  0  0
    0.0000    0.0000    0.0000 C   0  0  0  0  0  0  0  0  0  0  0  0
    0.0000    0.0000    0.0000 O   0  0  0  0  0  0  0  0  0  0  0  0
    0.0000    0.0000    0.0000 N   0  0  0  0  0  0  0  0  0  0  0  0
    0.0000    0.0000    0.0000 C   0  0  0  0  0  0  0  0  0  0  0  0
    0.0000    0.0000    0.0000 C   0  0  0  0  0  0  0  0  0  0  0  0
    0.0000    0.0000    0.0000 C   0  0  0  0  0  0  0  0  0  0  0  0
    0.0000    0.0000    0.0000 C   0  0  0  0  0  0  0  0  0  0  0  0
    0.0000    0.0000    0.0000 C   0  0  0  0  0  0  0  0  0  0  0  0
    0.0000    0.0000    0.0000 N   0  0  0  0  0  0  0  0  0  0  0  0
    0.0000    0.0000    0.0000 C   0  0  0  0  0  0  0  0  0  0  0  0
    0.0000    0.0000    0.0000 N   0  0  0  0  0  0  0  0  0  0  0  0
    0.0000    0.0000    0.0000 C   0  0  0  0  0  0  0  0  0  0  0  0
    0.0000    0.0000    0.0000 C   0  0  0  0  0  0  0  0  0  0  0  0
    0.0000    0.0000    0.0000 C   0  0  0  0  0  0  0  0  0  0  0  0
    0.0000    0.0000    0.0000 N   0  0  0  0  0  0  0  0  0  0  0  0
    0.0000    0.0000    0.0000 C   0  0  0  0  0  0  0  0  0  0  0  0
    0.0000    0.0000    0.0000 C   0  0  0  0  0  0  0  0  0  0  0  0
    0.0000    0.0000    0.0000 C   0  0  0  0  0  0  0  0  0  0  0  0
    0.0000    0.0000    0.0000 C   0  0  0  0  0  0  0  0  0  0  0  0
    0.0000    0.0000    0.0000 N   0  0  0  0  0  0  0  0  0  0  0  0
    0.0000    0.0000    0.0000 C   0  0  0  0  0  0  0  0  0  0  0  0
    0.0000    0.0000    0.0000 C   0  0  0  0  0  0  0  0  0  0  0  0
  1  2  1  0
  2  3  2  0
  2  4  1  0
  4  5  2  0
  5  6  1  0
  6  7  2  0
  7  8  1  0
  8  9  2  0
  9 10  1  0
 10 11  2  0
 10 12  1  0
 12 13  1  0
 13 14  2  0
 14 15  1  0
 15 16  2  0
 16 17  1  0
 17 18  1  0
 18 19  1  0
 19 20  2  0
 20 21  1  0
 21 22  2  0
 22 23  1  0
 23 24  2  0
 23 25  1  0
 25 26  2  0
 26 27  1  0
 27 28  2  0
 28 29  1  0
 29 30  2  0
 17 31  2  0
  9  4  1  0
 31 13  1  0
 24 19  1  0
 30 25  1  0
M  END
>  <pIC50>  (40) 
5.7

>  <ChEMBL_ID>  (40) 
CHEMBL55742

>  <document_journal>  (40) 
Bioorg. Med. Chem. Lett.

>  <bao_endpoint>  (40) 
BAO_0000190

>  <potential_duplicate>  (40) 
False

>  <uo_units>  (40) 
UO_0000065

>  <canonical_smiles>  (40) 
OC(=O)c1ccccc1C(=O)Nc2cccc(Nc3nccc(n3)c4cccnc4)c2

>  <parent_molecule_chembl_id>  (40) 
CHEMBL55742

>  <assay_type>  (40) 
B

>  <src_id>  (40) 
1

>  <ligand_efficiency>  (40) 
{u'le': u'0.25', u'bei': u'13.85', u'sei': u'4.87', u'lle': u'2.37'}

>  <standard_flag>  (40) 
True

>  <molecule_chembl_id>  (40) 
CHEMBL55742

>  <target_organism>  (40) 
Homo sapiens

>  <standard_units>  (40) 
nM

>  <record_id>  (40) 
97922

>  <document_chembl_id>  (40) 
CHEMBL1130562

>  <bao_format>  (40) 
BAO_0000357

>  <data_validity_description>  (40) 
None

>  <activity_id>  (40) 
931997

>  <standard_type>  (40) 
IC50

>  <target_chembl_id>  (40) 
CHEMBL1862

>  <data_validity_comment>  (40) 
None

>  <published_value>  (40) 
2

>  <document_year>  (40) 
1997

>  <target_pref_name>  (40) 
Tyrosine-protein kinase ABL

>  <assay_chembl_id>  (40) 
CHEMBL846547

>  <standard_relation>  (40) 
=

>  <assay_description>  (40) 
Inhibition of v-Abl tyrosine kinase.

>  <published_relation>  (40) 
=

>  <standard_value>  (40) 
2000

>  <qudt_units>  (40) 
http://www.openphacts.org/units/Nanomolar

>  <target_tax_id>  (40) 
9606

>  <bao_label>  (40) 
single protein format

>  <published_units>  (40) 
uM

>  <pchembl_value>  (40) 
5.7

>  <published_type>  (40) 
IC50

>  <activity_comment>  (40) 
None

$$$$

     RDKit          

 36 40  0  0  0  0  0  0  0  0999 V2000
    0.0000    0.0000    0.0000 C   0  0  0  0  0  0  0  0  0  0  0  0
    0.0000    0.0000    0.0000 N   0  0  0  0  0  0  0  0  0  0  0  0
    0.0000    0.0000    0.0000 C   0  0  0  0  0  0  0  0  0  0  0  0
    0.0000    0.0000    0.0000 C   0  0  0  0  0  0  0  0  0  0  0  0
    0.0000    0.0000    0.0000 N   0  0  0  0  0  0  0  0  0  0  0  0
    0.0000    0.0000    0.0000 C   0  0  0  0  0  0  0  0  0  0  0  0
    0.0000    0.0000    0.0000 C   0  0  0  0  0  0  0  0  0  0  0  0
    0.0000    0.0000    0.0000 C   0  0  0  0  0  0  0  0  0  0  0  0
    0.0000    0.0000    0.0000 C   0  0  0  0  0  0  0  0  0  0  0  0
    0.0000    0.0000    0.0000 C   0  0  0  0  0  0  0  0  0  0  0  0
    0.0000    0.0000    0.0000 C   0  0  0  0  0  0  0  0  0  0  0  0
    0.0000    0.0000    0.0000 C   0  0  0  0  0  0  0  0  0  0  0  0
    0.0000    0.0000    0.0000 C   0  0  0  0  0  0  0  0  0  0  0  0
    0.0000    0.0000    0.0000 O   0  0  0  0  0  0  0  0  0  0  0  0
    0.0000    0.0000    0.0000 N   0  0  0  0  0  0  0  0  0  0  0  0
    0.0000    0.0000    0.0000 C   0  0  0  0  0  0  0  0  0  0  0  0
    0.0000    0.0000    0.0000 C   0  0  0  0  0  0  0  0  0  0  0  0
    0.0000    0.0000    0.0000 C   0  0  0  0  0  0  0  0  0  0  0  0
    0.0000    0.0000    0.0000 C   0  0  0  0  0  0  0  0  0  0  0  0
    0.0000    0.0000    0.0000 C   0  0  0  0  0  0  0  0  0  0  0  0
    0.0000    0.0000    0.0000 N   0  0  0  0  0  0  0  0  0  0  0  0
    0.0000    0.0000    0.0000 C   0  0  0  0  0  0  0  0  0  0  0  0
    0.0000    0.0000    0.0000 N   0  0  0  0  0  0  0  0  0  0  0  0
    0.0000    0.0000    0.0000 C   0  0  0  0  0  0  0  0  0  0  0  0
    0.0000    0.0000    0.0000 C   0  0  0  0  0  0  0  0  0  0  0  0
    0.0000    0.0000    0.0000 C   0  0  0  0  0  0  0  0  0  0  0  0
    0.0000    0.0000    0.0000 N   0  0  0  0  0  0  0  0  0  0  0  0
    0.0000    0.0000    0.0000 C   0  0  0  0  0  0  0  0  0  0  0  0
    0.0000    0.0000    0.0000 C   0  0  0  0  0  0  0  0  0  0  0  0
    0.0000    0.0000    0.0000 C   0  0  0  0  0  0  0  0  0  0  0  0
    0.0000    0.0000    0.0000 C   0  0  0  0  0  0  0  0  0  0  0  0
    0.0000    0.0000    0.0000 N   0  0  0  0  0  0  0  0  0  0  0  0
    0.0000    0.0000    0.0000 C   0  0  0  0  0  0  0  0  0  0  0  0
    0.0000    0.0000    0.0000 C   0  0  0  0  0  0  0  0  0  0  0  0
    0.0000    0.0000    0.0000 C   0  0  0  0  0  0  0  0  0  0  0  0
    0.0000    0.0000    0.0000 C   0  0  0  0  0  0  0  0  0  0  0  0
  1  2  1  0
  2  3  1  0
  3  4  1  0
  4  5  1  0
  5  6  1  0
  6  7  1  0
  7  8  2  0
  8  9  1  0
  9 10  2  0
 10 11  1  0
 11 12  2  0
 10 13  1  0
 13 14  2  0
 13 15  1  0
 15 16  1  0
 16 17  2  0
 17 18  1  0
 18 19  2  0
 19 20  1  0
 20 21  1  0
 21 22  1  0
 22 23  2  0
 23 24  1  0
 24 25  2  0
 25 26  1  0
 26 27  2  0
 26 28  1  0
 28 29  2  0
 29 30  1  0
 30 31  2  0
 31 32  1  0
 32 33  2  0
 20 34  2  0
  5 35  1  0
 35 36  1  0
 36  2  1  0
 12  7  1  0
 34 16  1  0
 27 22  1  0
 33 28  1  0
M  END
>  <pIC50>  (41) 
7.0

>  <ChEMBL_ID>  (41) 
CHEMBL56904

>  <document_journal>  (41) 
Bioorg. Med. Chem. Lett.

>  <bao_endpoint>  (41) 
BAO_0000190

>  <potential_duplicate>  (41) 
False

>  <uo_units>  (41) 
UO_0000065

>  <canonical_smiles>  (41) 
CN1CCN(Cc2ccc(cc2)C(=O)Nc3cccc(Nc4nccc(n4)c5cccnc5)c3)CC1

>  <parent_molecule_chembl_id>  (41) 
CHEMBL56904

>  <assay_type>  (41) 
B

>  <src_id>  (41) 
1

>  <ligand_efficiency>  (41) 
{u'le': u'0.27', u'bei': u'14.6', u'sei': u'8.11', u'lle': u'3.27'}

>  <standard_flag>  (41) 
True

>  <molecule_chembl_id>  (41) 
CHEMBL56904

>  <target_organism>  (41) 
Homo sapiens

>  <standard_units>  (41) 
nM

>  <record_id>  (41) 
97893

>  <document_chembl_id>  (41) 
CHEMBL1130562

>  <bao_format>  (41) 
BAO_0000357

>  <data_validity_description>  (41) 
None

>  <activity_id>  (41) 
933461

>  <standard_type>  (41) 
IC50

>  <target_chembl_id>  (41) 
CHEMBL1862

>  <data_validity_comment>  (41) 
None

>  <published_value>  (41) 
0.1

>  <document_year>  (41) 
1997

>  <target_pref_name>  (41) 
Tyrosine-protein kinase ABL

>  <assay_chembl_id>  (41) 
CHEMBL846547

>  <standard_relation>  (41) 
=

>  <assay_description>  (41) 
Inhibition of v-Abl tyrosine kinase.

>  <published_relation>  (41) 
=

>  <standard_value>  (41) 
100

>  <qudt_units>  (41) 
http://www.openphacts.org/units/Nanomolar

>  <target_tax_id>  (41) 
9606

>  <bao_label>  (41) 
single protein format

>  <published_units>  (41) 
uM

>  <pchembl_value>  (41) 
7

>  <published_type>  (41) 
IC50

>  <activity_comment>  (41) 
None

$$$$

     RDKit          

 28 31  0  0  0  0  0  0  0  0999 V2000
    0.0000    0.0000    0.0000 O   0  0  0  0  0  0  0  0  0  0  0  0
    0.0000    0.0000    0.0000 C   0  0  0  0  0  0  0  0  0  0  0  0
    0.0000    0.0000    0.0000 N   0  0  0  0  0  0  0  0  0  0  0  0
    0.0000    0.0000    0.0000 C   0  0  0  0  0  0  0  0  0  0  0  0
    0.0000    0.0000    0.0000 C   0  0  0  0  0  0  0  0  0  0  0  0
    0.0000    0.0000    0.0000 C   0  0  0  0  0  0  0  0  0  0  0  0
    0.0000    0.0000    0.0000 C   0  0  0  0  0  0  0  0  0  0  0  0
    0.0000    0.0000    0.0000 C   0  0  0  0  0  0  0  0  0  0  0  0
    0.0000    0.0000    0.0000 N   0  0  0  0  0  0  0  0  0  0  0  0
    0.0000    0.0000    0.0000 C   0  0  0  0  0  0  0  0  0  0  0  0
    0.0000    0.0000    0.0000 N   0  0  0  0  0  0  0  0  0  0  0  0
    0.0000    0.0000    0.0000 C   0  0  0  0  0  0  0  0  0  0  0  0
    0.0000    0.0000    0.0000 C   0  0  0  0  0  0  0  0  0  0  0  0
    0.0000    0.0000    0.0000 C   0  0  0  0  0  0  0  0  0  0  0  0
    0.0000    0.0000    0.0000 N   0  0  0  0  0  0  0  0  0  0  0  0
    0.0000    0.0000    0.0000 C   0  0  0  0  0  0  0  0  0  0  0  0
    0.0000    0.0000    0.0000 C   0  0  0  0  0  0  0  0  0  0  0  0
    0.0000    0.0000    0.0000 C   0  0  0  0  0  0  0  0  0  0  0  0
    0.0000    0.0000    0.0000 C   0  0  0  0  0  0  0  0  0  0  0  0
    0.0000    0.0000    0.0000 N   0  0  0  0  0  0  0  0  0  0  0  0
    0.0000    0.0000    0.0000 C   0  0  0  0  0  0  0  0  0  0  0  0
    0.0000    0.0000    0.0000 C   0  0  0  0  0  0  0  0  0  0  0  0
    0.0000    0.0000    0.0000 C   0  0  0  0  0  0  0  0  0  0  0  0
    0.0000    0.0000    0.0000 C   0  0  0  0  0  0  0  0  0  0  0  0
    0.0000    0.0000    0.0000 C   0  0  0  0  0  0  0  0  0  0  0  0
    0.0000    0.0000    0.0000 C   0  0  0  0  0  0  0  0  0  0  0  0
    0.0000    0.0000    0.0000 N   0  0  0  0  0  0  0  0  0  0  0  0
    0.0000    0.0000    0.0000 C   0  0  0  0  0  0  0  0  0  0  0  0
  1  2  2  0
  2  3  1  0
  3  4  1  0
  4  5  2  0
  5  6  1  0
  6  7  2  0
  7  8  1  0
  8  9  1  0
  9 10  1  0
 10 11  2  0
 11 12  1  0
 12 13  2  0
 13 14  1  0
 14 15  2  0
 14 16  1  0
 16 17  2  0
 17 18  1  0
 18 19  2  0
 19 20  1  0
 20 21  2  0
  8 22  2  0
  2 23  1  0
 23 24  2  0
 24 25  1  0
 25 26  2  0
 26 27  1  0
 27 28  2  0
 22  4  1  0
 15 10  1  0
 21 16  1  0
 28 23  1  0
M  END
>  <pIC50>  (42) 
6.82

>  <ChEMBL_ID>  (42) 
CHEMBL418270

>  <document_journal>  (42) 
Bioorg. Med. Chem. Lett.

>  <bao_endpoint>  (42) 
BAO_0000190

>  <potential_duplicate>  (42) 
False

>  <uo_units>  (42) 
UO_0000065

>  <canonical_smiles>  (42) 
O=C(Nc1cccc(Nc2nccc(n2)c3cccnc3)c1)c4cccnc4

>  <parent_molecule_chembl_id>  (42) 
CHEMBL418270

>  <assay_type>  (42) 
B

>  <src_id>  (42) 
1

>  <ligand_efficiency>  (42) 
{u'le': u'0.33', u'bei': u'18.52', u'sei': u'7.36', u'lle': u'4.27'}

>  <standard_flag>  (42) 
True

>  <molecule_chembl_id>  (42) 
CHEMBL418270

>  <target_organism>  (42) 
Homo sapiens

>  <standard_units>  (42) 
nM

>  <record_id>  (42) 
97897

>  <document_chembl_id>  (42) 
CHEMBL1130562

>  <bao_format>  (42) 
BAO_0000357

>  <data_validity_description>  (42) 
None

>  <activity_id>  (42) 
933469

>  <standard_type>  (42) 
IC50

>  <target_chembl_id>  (42) 
CHEMBL1862

>  <data_validity_comment>  (42) 
None

>  <published_value>  (42) 
0.15

>  <document_year>  (42) 
1997

>  <target_pref_name>  (42) 
Tyrosine-protein kinase ABL

>  <assay_chembl_id>  (42) 
CHEMBL846547

>  <standard_relation>  (42) 
=

>  <assay_description>  (42) 
Inhibition of v-Abl tyrosine kinase.

>  <published_relation>  (42) 
=

>  <standard_value>  (42) 
150

>  <qudt_units>  (42) 
http://www.openphacts.org/units/Nanomolar

>  <target_tax_id>  (42) 
9606

>  <bao_label>  (42) 
single protein format

>  <published_units>  (42) 
uM

>  <pchembl_value>  (42) 
6.82

>  <published_type>  (42) 
IC50

>  <activity_comment>  (42) 
None

$$$$

     RDKit          

 33 36  0  0  0  0  0  0  0  0999 V2000
    0.0000    0.0000    0.0000 N   0  0  0  0  0  0  0  0  0  0  0  0
    0.0000    0.0000    0.0000 C   0  0  0  0  0  0  0  0  0  0  0  0
    0.0000    0.0000    0.0000 C   0  0  0  0  0  0  0  0  0  0  0  0
    0.0000    0.0000    0.0000 C   0  0  0  0  0  0  0  0  0  0  0  0
    0.0000    0.0000    0.0000 N   0  0  0  0  0  0  0  0  0  0  0  0
    0.0000    0.0000    0.0000 C   0  0  0  0  0  0  0  0  0  0  0  0
    0.0000    0.0000    0.0000 C   0  0  0  0  0  0  0  0  0  0  0  0
    0.0000    0.0000    0.0000 C   0  0  0  0  0  0  0  0  0  0  0  0
    0.0000    0.0000    0.0000 C   0  0  0  0  0  0  0  0  0  0  0  0
    0.0000    0.0000    0.0000 C   0  0  0  0  0  0  0  0  0  0  0  0
    0.0000    0.0000    0.0000 C   0  0  0  0  0  0  0  0  0  0  0  0
    0.0000    0.0000    0.0000 C   0  0  0  0  0  0  0  0  0  0  0  0
    0.0000    0.0000    0.0000 C   0  0  0  0  0  0  0  0  0  0  0  0
    0.0000    0.0000    0.0000 C   0  0  0  0  0  0  0  0  0  0  0  0
    0.0000    0.0000    0.0000 C   0  0  0  0  0  0  0  0  0  0  0  0
    0.0000    0.0000    0.0000 C   0  0  0  0  0  0  0  0  0  0  0  0
    0.0000    0.0000    0.0000 N   0  0  0  0  0  0  0  0  0  0  0  0
    0.0000    0.0000    0.0000 C   0  0  0  0  0  0  0  0  0  0  0  0
    0.0000    0.0000    0.0000 N   0  0  0  0  0  0  0  0  0  0  0  0
    0.0000    0.0000    0.0000 C   0  0  0  0  0  0  0  0  0  0  0  0
    0.0000    0.0000    0.0000 C   0  0  0  0  0  0  0  0  0  0  0  0
    0.0000    0.0000    0.0000 C   0  0  0  0  0  0  0  0  0  0  0  0
    0.0000    0.0000    0.0000 C   0  0  0  0  0  0  0  0  0  0  0  0
    0.0000    0.0000    0.0000 C   0  0  0  0  0  0  0  0  0  0  0  0
    0.0000    0.0000    0.0000 O   0  0  0  0  0  0  0  0  0  0  0  0
    0.0000    0.0000    0.0000 C   0  0  0  0  0  0  0  0  0  0  0  0
    0.0000    0.0000    0.0000 F   0  0  0  0  0  0  0  0  0  0  0  0
    0.0000    0.0000    0.0000 F   0  0  0  0  0  0  0  0  0  0  0  0
    0.0000    0.0000    0.0000 C   0  0  0  0  0  0  0  0  0  0  0  0
    0.0000    0.0000    0.0000 F   0  0  0  0  0  0  0  0  0  0  0  0
    0.0000    0.0000    0.0000 F   0  0  0  0  0  0  0  0  0  0  0  0
    0.0000    0.0000    0.0000 C   0  0  0  0  0  0  0  0  0  0  0  0
    0.0000    0.0000    0.0000 N   0  0  0  0  0  0  0  0  0  0  0  0
  1  2  1  0
  2  3  1  0
  3  4  1  0
  4  5  1  0
  5  6  1  0
  6  7  2  0
  7  8  1  0
  8  9  2  0
  9 10  1  0
 10 11  2  0
 11 12  1  0
 12 13  2  0
  9 14  1  0
 14 15  2  0
 15 16  1  0
 16 17  2  0
 17 18  1  0
 18 19  1  0
 19 20  1  0
 20 21  2  0
 21 22  1  0
 22 23  2  0
 23 24  1  0
 24 25  1  0
 25 26  1  0
 26 27  1  0
 26 28  1  0
 26 29  1  0
 29 30  1  0
 29 31  1  0
 24 32  2  0
 18 33  2  0
 13  5  1  0
 13  8  1  0
 33 14  1  0
 32 20  1  0
M  END
>  <pIC50>  (43) 
6.46

>  <ChEMBL_ID>  (43) 
CHEMBL293991

>  <document_journal>  (43) 
Bioorg. Med. Chem. Lett.

>  <bao_endpoint>  (43) 
BAO_0000190

>  <potential_duplicate>  (43) 
False

>  <uo_units>  (43) 
UO_0000065

>  <canonical_smiles>  (43) 
NCCCn1ccc2c(cccc12)c3ccnc(Nc4cccc(OC(F)(F)C(F)F)c4)n3

>  <parent_molecule_chembl_id>  (43) 
CHEMBL293991

>  <assay_type>  (43) 
B

>  <src_id>  (43) 
1

>  <ligand_efficiency>  (43) 
{u'le': u'0.27', u'bei': u'14.05', u'sei': u'8.28', u'lle': u'1.18'}

>  <standard_flag>  (43) 
True

>  <molecule_chembl_id>  (43) 
CHEMBL293991

>  <target_organism>  (43) 
Homo sapiens

>  <standard_units>  (43) 
nM

>  <record_id>  (43) 
97899

>  <document_chembl_id>  (43) 
CHEMBL1130562

>  <bao_format>  (43) 
BAO_0000357

>  <data_validity_description>  (43) 
None

>  <activity_id>  (43) 
933477

>  <standard_type>  (43) 
IC50

>  <target_chembl_id>  (43) 
CHEMBL1862

>  <data_validity_comment>  (43) 
None

>  <published_value>  (43) 
0.35

>  <document_year>  (43) 
1997

>  <target_pref_name>  (43) 
Tyrosine-protein kinase ABL

>  <assay_chembl_id>  (43) 
CHEMBL846547

>  <standard_relation>  (43) 
=

>  <assay_description>  (43) 
Inhibition of v-Abl tyrosine kinase.

>  <published_relation>  (43) 
=

>  <standard_value>  (43) 
350

>  <qudt_units>  (43) 
http://www.openphacts.org/units/Nanomolar

>  <target_tax_id>  (43) 
9606

>  <bao_label>  (43) 
single protein format

>  <published_units>  (43) 
uM

>  <pchembl_value>  (43) 
6.46

>  <published_type>  (43) 
IC50

>  <activity_comment>  (43) 
None

$$$$

     RDKit          

 31 34  0  0  0  0  0  0  0  0999 V2000
    0.0000    0.0000    0.0000 C   0  0  0  0  0  0  0  0  0  0  0  0
    0.0000    0.0000    0.0000 O   0  0  0  0  0  0  0  0  0  0  0  0
    0.0000    0.0000    0.0000 C   0  0  0  0  0  0  0  0  0  0  0  0
    0.0000    0.0000    0.0000 C   0  0  0  0  0  0  0  0  0  0  0  0
    0.0000    0.0000    0.0000 C   0  0  0  0  0  0  0  0  0  0  0  0
    0.0000    0.0000    0.0000 C   0  0  0  0  0  0  0  0  0  0  0  0
    0.0000    0.0000    0.0000 C   0  0  0  0  0  0  0  0  0  0  0  0
    0.0000    0.0000    0.0000 C   0  0  0  0  0  0  0  0  0  0  0  0
    0.0000    0.0000    0.0000 C   0  0  0  0  0  0  0  0  0  0  0  0
    0.0000    0.0000    0.0000 O   0  0  0  0  0  0  0  0  0  0  0  0
    0.0000    0.0000    0.0000 N   0  0  0  0  0  0  0  0  0  0  0  0
    0.0000    0.0000    0.0000 C   0  0  0  0  0  0  0  0  0  0  0  0
    0.0000    0.0000    0.0000 C   0  0  0  0  0  0  0  0  0  0  0  0
    0.0000    0.0000    0.0000 C   0  0  0  0  0  0  0  0  0  0  0  0
    0.0000    0.0000    0.0000 C   0  0  0  0  0  0  0  0  0  0  0  0
    0.0000    0.0000    0.0000 C   0  0  0  0  0  0  0  0  0  0  0  0
    0.0000    0.0000    0.0000 C   0  0  0  0  0  0  0  0  0  0  0  0
    0.0000    0.0000    0.0000 N   0  0  0  0  0  0  0  0  0  0  0  0
    0.0000    0.0000    0.0000 C   0  0  0  0  0  0  0  0  0  0  0  0
    0.0000    0.0000    0.0000 N   0  0  0  0  0  0  0  0  0  0  0  0
    0.0000    0.0000    0.0000 C   0  0  0  0  0  0  0  0  0  0  0  0
    0.0000    0.0000    0.0000 C   0  0  0  0  0  0  0  0  0  0  0  0
    0.0000    0.0000    0.0000 C   0  0  0  0  0  0  0  0  0  0  0  0
    0.0000    0.0000    0.0000 N   0  0  0  0  0  0  0  0  0  0  0  0
    0.0000    0.0000    0.0000 C   0  0  0  0  0  0  0  0  0  0  0  0
    0.0000    0.0000    0.0000 C   0  0  0  0  0  0  0  0  0  0  0  0
    0.0000    0.0000    0.0000 C   0  0  0  0  0  0  0  0  0  0  0  0
    0.0000    0.0000    0.0000 C   0  0  0  0  0  0  0  0  0  0  0  0
    0.0000    0.0000    0.0000 N   0  0  0  0  0  0  0  0  0  0  0  0
    0.0000    0.0000    0.0000 C   0  0  0  0  0  0  0  0  0  0  0  0
    0.0000    0.0000    0.0000 C   0  0  0  0  0  0  0  0  0  0  0  0
  1  2  1  0
  2  3  1  0
  3  4  2  0
  4  5  1  0
  5  6  2  0
  6  7  1  0
  7  8  2  0
  8  9  1  0
  9 10  2  0
  9 11  1  0
 11 12  1  0
 12 13  2  0
 13 14  1  0
 14 15  2  0
 15 16  1  0
 15 17  1  0
 17 18  1  0
 18 19  1  0
 19 20  2  0
 20 21  1  0
 21 22  2  0
 22 23  1  0
 23 24  2  0
 23 25  1  0
 25 26  2  0
 26 27  1  0
 27 28  2  0
 28 29  1  0
 29 30  2  0
 17 31  2  0
  8  3  1  0
 31 12  1  0
 24 19  1  0
 30 25  1  0
M  END
>  <pIC50>  (44) 
6.1

>  <ChEMBL_ID>  (44) 
CHEMBL418010

>  <document_journal>  (44) 
Bioorg. Med. Chem. Lett.

>  <bao_endpoint>  (44) 
BAO_0000190

>  <potential_duplicate>  (44) 
False

>  <uo_units>  (44) 
UO_0000065

>  <canonical_smiles>  (44) 
COc1ccccc1C(=O)Nc2ccc(C)c(Nc3nccc(n3)c4cccnc4)c2

>  <parent_molecule_chembl_id>  (44) 
CHEMBL418010

>  <assay_type>  (44) 
B

>  <src_id>  (44) 
1

>  <ligand_efficiency>  (44) 
{u'le': u'0.27', u'bei': u'14.82', u'sei': u'6.85', u'lle': u'1.93'}

>  <standard_flag>  (44) 
True

>  <molecule_chembl_id>  (44) 
CHEMBL418010

>  <target_organism>  (44) 
Homo sapiens

>  <standard_units>  (44) 
nM

>  <record_id>  (44) 
97906

>  <document_chembl_id>  (44) 
CHEMBL1130562

>  <bao_format>  (44) 
BAO_0000357

>  <data_validity_description>  (44) 
None

>  <activity_id>  (44) 
933484

>  <standard_type>  (44) 
IC50

>  <target_chembl_id>  (44) 
CHEMBL1862

>  <data_validity_comment>  (44) 
None

>  <published_value>  (44) 
0.8

>  <document_year>  (44) 
1997

>  <target_pref_name>  (44) 
Tyrosine-protein kinase ABL

>  <assay_chembl_id>  (44) 
CHEMBL846547

>  <standard_relation>  (44) 
=

>  <assay_description>  (44) 
Inhibition of v-Abl tyrosine kinase.

>  <published_relation>  (44) 
=

>  <standard_value>  (44) 
800

>  <qudt_units>  (44) 
http://www.openphacts.org/units/Nanomolar

>  <target_tax_id>  (44) 
9606

>  <bao_label>  (44) 
single protein format

>  <published_units>  (44) 
uM

>  <pchembl_value>  (44) 
6.1

>  <published_type>  (44) 
IC50

>  <activity_comment>  (44) 
None

$$$$

     RDKit          

 27 30  0  0  0  0  0  0  0  0999 V2000
    0.0000    0.0000    0.0000 O   0  0  0  0  0  0  0  0  0  0  0  0
    0.0000    0.0000    0.0000 C   0  0  0  0  0  0  0  0  0  0  0  0
    0.0000    0.0000    0.0000 N   0  0  0  0  0  0  0  0  0  0  0  0
    0.0000    0.0000    0.0000 C   0  0  0  0  0  0  0  0  0  0  0  0
    0.0000    0.0000    0.0000 C   0  0  0  0  0  0  0  0  0  0  0  0
    0.0000    0.0000    0.0000 C   0  0  0  0  0  0  0  0  0  0  0  0
    0.0000    0.0000    0.0000 C   0  0  0  0  0  0  0  0  0  0  0  0
    0.0000    0.0000    0.0000 C   0  0  0  0  0  0  0  0  0  0  0  0
    0.0000    0.0000    0.0000 N   0  0  0  0  0  0  0  0  0  0  0  0
    0.0000    0.0000    0.0000 C   0  0  0  0  0  0  0  0  0  0  0  0
    0.0000    0.0000    0.0000 N   0  0  0  0  0  0  0  0  0  0  0  0
    0.0000    0.0000    0.0000 C   0  0  0  0  0  0  0  0  0  0  0  0
    0.0000    0.0000    0.0000 C   0  0  0  0  0  0  0  0  0  0  0  0
    0.0000    0.0000    0.0000 C   0  0  0  0  0  0  0  0  0  0  0  0
    0.0000    0.0000    0.0000 N   0  0  0  0  0  0  0  0  0  0  0  0
    0.0000    0.0000    0.0000 C   0  0  0  0  0  0  0  0  0  0  0  0
    0.0000    0.0000    0.0000 C   0  0  0  0  0  0  0  0  0  0  0  0
    0.0000    0.0000    0.0000 C   0  0  0  0  0  0  0  0  0  0  0  0
    0.0000    0.0000    0.0000 C   0  0  0  0  0  0  0  0  0  0  0  0
    0.0000    0.0000    0.0000 N   0  0  0  0  0  0  0  0  0  0  0  0
    0.0000    0.0000    0.0000 C   0  0  0  0  0  0  0  0  0  0  0  0
    0.0000    0.0000    0.0000 C   0  0  0  0  0  0  0  0  0  0  0  0
    0.0000    0.0000    0.0000 C   0  0  0  0  0  0  0  0  0  0  0  0
    0.0000    0.0000    0.0000 C   0  0  0  0  0  0  0  0  0  0  0  0
    0.0000    0.0000    0.0000 C   0  0  0  0  0  0  0  0  0  0  0  0
    0.0000    0.0000    0.0000 C   0  0  0  0  0  0  0  0  0  0  0  0
    0.0000    0.0000    0.0000 S   0  0  0  0  0  0  0  0  0  0  0  0
  1  2  2  0
  2  3  1  0
  3  4  1  0
  4  5  2  0
  5  6  1  0
  6  7  2  0
  7  8  1  0
  8  9  1  0
  9 10  1  0
 10 11  2  0
 11 12  1  0
 12 13  2  0
 13 14  1  0
 14 15  2  0
 14 16  1  0
 16 17  2  0
 17 18  1  0
 18 19  2  0
 19 20  1  0
 20 21  2  0
  8 22  2  0
  2 23  1  0
 23 24  2  0
 24 25  1  0
 25 26  2  0
 26 27  1  0
 22  4  1  0
 15 10  1  0
 21 16  1  0
 27 23  1  0
M  END
>  <pIC50>  (45) 
6.52

>  <ChEMBL_ID>  (45) 
CHEMBL56359

>  <document_journal>  (45) 
Bioorg. Med. Chem. Lett.

>  <bao_endpoint>  (45) 
BAO_0000190

>  <potential_duplicate>  (45) 
False

>  <uo_units>  (45) 
UO_0000065

>  <canonical_smiles>  (45) 
O=C(Nc1cccc(Nc2nccc(n2)c3cccnc3)c1)c4cccs4

>  <parent_molecule_chembl_id>  (45) 
CHEMBL56359

>  <assay_type>  (45) 
B

>  <src_id>  (45) 
1

>  <ligand_efficiency>  (45) 
{u'le': u'0.33', u'bei': u'17.47', u'sei': u'6.04', u'lle': u'2.86'}

>  <standard_flag>  (45) 
True

>  <molecule_chembl_id>  (45) 
CHEMBL56359

>  <target_organism>  (45) 
Homo sapiens

>  <standard_units>  (45) 
nM

>  <record_id>  (45) 
97928

>  <document_chembl_id>  (45) 
CHEMBL1130562

>  <bao_format>  (45) 
BAO_0000357

>  <data_validity_description>  (45) 
None

>  <activity_id>  (45) 
936345

>  <standard_type>  (45) 
IC50

>  <target_chembl_id>  (45) 
CHEMBL1862

>  <data_validity_comment>  (45) 
None

>  <published_value>  (45) 
0.3

>  <document_year>  (45) 
1997

>  <target_pref_name>  (45) 
Tyrosine-protein kinase ABL

>  <assay_chembl_id>  (45) 
CHEMBL846547

>  <standard_relation>  (45) 
=

>  <assay_description>  (45) 
Inhibition of v-Abl tyrosine kinase.

>  <published_relation>  (45) 
=

>  <standard_value>  (45) 
300

>  <qudt_units>  (45) 
http://www.openphacts.org/units/Nanomolar

>  <target_tax_id>  (45) 
9606

>  <bao_label>  (45) 
single protein format

>  <published_units>  (45) 
uM

>  <pchembl_value>  (45) 
6.52

>  <published_type>  (45) 
IC50

>  <activity_comment>  (45) 
None

$$$$

     RDKit          

 29 32  0  0  0  0  0  0  0  0999 V2000
    0.0000    0.0000    0.0000 C   0  0  0  0  0  0  0  0  0  0  0  0
    0.0000    0.0000    0.0000 C   0  0  0  0  0  0  0  0  0  0  0  0
    0.0000    0.0000    0.0000 C   0  0  0  0  0  0  0  0  0  0  0  0
    0.0000    0.0000    0.0000 C   0  0  0  0  0  0  0  0  0  0  0  0
    0.0000    0.0000    0.0000 C   0  0  0  0  0  0  0  0  0  0  0  0
    0.0000    0.0000    0.0000 N   0  0  0  0  0  0  0  0  0  0  0  0
    0.0000    0.0000    0.0000 C   0  0  0  0  0  0  0  0  0  0  0  0
    0.0000    0.0000    0.0000 O   0  0  0  0  0  0  0  0  0  0  0  0
    0.0000    0.0000    0.0000 C   0  0  0  0  0  0  0  0  0  0  0  0
    0.0000    0.0000    0.0000 C   0  0  0  0  0  0  0  0  0  0  0  0
    0.0000    0.0000    0.0000 C   0  0  0  0  0  0  0  0  0  0  0  0
    0.0000    0.0000    0.0000 C   0  0  0  0  0  0  0  0  0  0  0  0
    0.0000    0.0000    0.0000 C   0  0  0  0  0  0  0  0  0  0  0  0
    0.0000    0.0000    0.0000 C   0  0  0  0  0  0  0  0  0  0  0  0
    0.0000    0.0000    0.0000 C   0  0  0  0  0  0  0  0  0  0  0  0
    0.0000    0.0000    0.0000 C   0  0  0  0  0  0  0  0  0  0  0  0
    0.0000    0.0000    0.0000 N   0  0  0  0  0  0  0  0  0  0  0  0
    0.0000    0.0000    0.0000 C   0  0  0  0  0  0  0  0  0  0  0  0
    0.0000    0.0000    0.0000 N   0  0  0  0  0  0  0  0  0  0  0  0
    0.0000    0.0000    0.0000 C   0  0  0  0  0  0  0  0  0  0  0  0
    0.0000    0.0000    0.0000 C   0  0  0  0  0  0  0  0  0  0  0  0
    0.0000    0.0000    0.0000 C   0  0  0  0  0  0  0  0  0  0  0  0
    0.0000    0.0000    0.0000 N   0  0  0  0  0  0  0  0  0  0  0  0
    0.0000    0.0000    0.0000 C   0  0  0  0  0  0  0  0  0  0  0  0
    0.0000    0.0000    0.0000 C   0  0  0  0  0  0  0  0  0  0  0  0
    0.0000    0.0000    0.0000 C   0  0  0  0  0  0  0  0  0  0  0  0
    0.0000    0.0000    0.0000 C   0  0  0  0  0  0  0  0  0  0  0  0
    0.0000    0.0000    0.0000 N   0  0  0  0  0  0  0  0  0  0  0  0
    0.0000    0.0000    0.0000 C   0  0  0  0  0  0  0  0  0  0  0  0
  1  2  1  0
  2  3  2  0
  3  4  1  0
  4  5  2  0
  5  6  1  0
  6  7  1  0
  7  8  2  0
  7  9  1  0
  9 10  2  0
 10 11  1  0
 11 12  2  0
 12 13  1  0
 13 14  2  0
  5 15  1  0
 15 16  2  0
 16 17  1  0
 17 18  1  0
 18 19  2  0
 19 20  1  0
 20 21  2  0
 21 22  1  0
 22 23  2  0
 22 24  1  0
 24 25  2  0
 25 26  1  0
 26 27  2  0
 27 28  1  0
 28 29  2  0
 16  2  1  0
 14  9  1  0
 23 18  1  0
 29 24  1  0
M  END
>  <pIC50>  (46) 
5.65

>  <ChEMBL_ID>  (46) 
CHEMBL20926

>  <document_journal>  (46) 
Bioorg. Med. Chem. Lett.

>  <bao_endpoint>  (46) 
BAO_0000190

>  <potential_duplicate>  (46) 
False

>  <uo_units>  (46) 
UO_0000065

>  <canonical_smiles>  (46) 
Cc1ccc(NC(=O)c2ccccc2)cc1Nc3nccc(n3)c4cccnc4

>  <parent_molecule_chembl_id>  (46) 
CHEMBL20926

>  <assay_type>  (46) 
B

>  <src_id>  (46) 
1

>  <ligand_efficiency>  (46) 
{u'le': u'0.3', u'bei': u'16.77', u'sei': u'8.02', u'lle': u'2.21'}

>  <standard_flag>  (46) 
True

>  <molecule_chembl_id>  (46) 
CHEMBL20926

>  <target_organism>  (46) 
Homo sapiens

>  <standard_units>  (46) 
nM

>  <record_id>  (46) 
97925

>  <document_chembl_id>  (46) 
CHEMBL1130562

>  <bao_format>  (46) 
BAO_0000357

>  <data_validity_description>  (46) 
None

>  <activity_id>  (46) 
937849

>  <standard_type>  (46) 
IC50

>  <target_chembl_id>  (46) 
CHEMBL1862

>  <data_validity_comment>  (46) 
None

>  <published_value>  (46) 
0.4

>  <document_year>  (46) 
1997

>  <target_pref_name>  (46) 
Tyrosine-protein kinase ABL

>  <assay_chembl_id>  (46) 
CHEMBL846547

>  <standard_relation>  (46) 
=

>  <assay_description>  (46) 
Inhibition of v-Abl tyrosine kinase.

>  <published_relation>  (46) 
=

>  <standard_value>  (46) 
400

>  <qudt_units>  (46) 
http://www.openphacts.org/units/Nanomolar

>  <target_tax_id>  (46) 
9606

>  <bao_label>  (46) 
single protein format

>  <published_units>  (46) 
uM

>  <pchembl_value>  (46) 
6.4

>  <published_type>  (46) 
IC50

>  <activity_comment>  (46) 
None

$$$$

     RDKit          

 21 23  0  0  0  0  0  0  0  0999 V2000
    0.0000    0.0000    0.0000 C   0  0  0  0  0  0  0  0  0  0  0  0
    0.0000    0.0000    0.0000 C   0  0  0  0  0  0  0  0  0  0  0  0
    0.0000    0.0000    0.0000 C   0  0  0  0  0  0  0  0  0  0  0  0
    0.0000    0.0000    0.0000 C   0  0  0  0  0  0  0  0  0  0  0  0
    0.0000    0.0000    0.0000 C   0  0  0  0  0  0  0  0  0  0  0  0
    0.0000    0.0000    0.0000 N   0  0  0  0  0  0  0  0  0  0  0  0
    0.0000    0.0000    0.0000 C   0  0  0  0  0  0  0  0  0  0  0  0
    0.0000    0.0000    0.0000 C   0  0  0  0  0  0  0  0  0  0  0  0
    0.0000    0.0000    0.0000 N   0  0  0  0  0  0  0  0  0  0  0  0
    0.0000    0.0000    0.0000 C   0  0  0  0  0  0  0  0  0  0  0  0
    0.0000    0.0000    0.0000 N   0  0  0  0  0  0  0  0  0  0  0  0
    0.0000    0.0000    0.0000 C   0  0  0  0  0  0  0  0  0  0  0  0
    0.0000    0.0000    0.0000 C   0  0  0  0  0  0  0  0  0  0  0  0
    0.0000    0.0000    0.0000 C   0  0  0  0  0  0  0  0  0  0  0  0
    0.0000    0.0000    0.0000 N   0  0  0  0  0  0  0  0  0  0  0  0
    0.0000    0.0000    0.0000 C   0  0  0  0  0  0  0  0  0  0  0  0
    0.0000    0.0000    0.0000 C   0  0  0  0  0  0  0  0  0  0  0  0
    0.0000    0.0000    0.0000 C   0  0  0  0  0  0  0  0  0  0  0  0
    0.0000    0.0000    0.0000 C   0  0  0  0  0  0  0  0  0  0  0  0
    0.0000    0.0000    0.0000 N   0  0  0  0  0  0  0  0  0  0  0  0
    0.0000    0.0000    0.0000 C   0  0  0  0  0  0  0  0  0  0  0  0
  1  2  1  0
  2  3  2  0
  3  4  1  0
  4  5  2  0
  5  6  1  0
  5  7  1  0
  7  8  2  0
  8  9  1  0
  9 10  1  0
 10 11  2  0
 11 12  1  0
 12 13  2  0
 13 14  1  0
 14 15  2  0
 14 16  1  0
 16 17  2  0
 17 18  1  0
 18 19  2  0
 19 20  1  0
 20 21  2  0
  8  2  1  0
 15 10  1  0
 21 16  1  0
M  END
>  <pIC50>  (47) 
5.82

>  <ChEMBL_ID>  (47) 
CHEMBL278103

>  <document_journal>  (47) 
Bioorg. Med. Chem. Lett.

>  <bao_endpoint>  (47) 
BAO_0000190

>  <potential_duplicate>  (47) 
False

>  <uo_units>  (47) 
UO_0000065

>  <canonical_smiles>  (47) 
Cc1ccc(N)cc1Nc2nccc(n2)c3cccnc3

>  <parent_molecule_chembl_id>  (47) 
CHEMBL278103

>  <assay_type>  (47) 
B

>  <src_id>  (47) 
1

>  <ligand_efficiency>  (47) 
{u'le': u'0.38', u'bei': u'21', u'sei': u'7.59', u'lle': u'3.16'}

>  <standard_flag>  (47) 
True

>  <molecule_chembl_id>  (47) 
CHEMBL278103

>  <target_organism>  (47) 
Homo sapiens

>  <standard_units>  (47) 
nM

>  <record_id>  (47) 
97900

>  <document_chembl_id>  (47) 
CHEMBL1130562

>  <bao_format>  (47) 
BAO_0000357

>  <data_validity_description>  (47) 
None

>  <activity_id>  (47) 
939135

>  <standard_type>  (47) 
IC50

>  <target_chembl_id>  (47) 
CHEMBL1862

>  <data_validity_comment>  (47) 
None

>  <published_value>  (47) 
1.5

>  <document_year>  (47) 
1997

>  <target_pref_name>  (47) 
Tyrosine-protein kinase ABL

>  <assay_chembl_id>  (47) 
CHEMBL846547

>  <standard_relation>  (47) 
=

>  <assay_description>  (47) 
Inhibition of v-Abl tyrosine kinase.

>  <published_relation>  (47) 
=

>  <standard_value>  (47) 
1500

>  <qudt_units>  (47) 
http://www.openphacts.org/units/Nanomolar

>  <target_tax_id>  (47) 
9606

>  <bao_label>  (47) 
single protein format

>  <published_units>  (47) 
uM

>  <pchembl_value>  (47) 
5.82

>  <published_type>  (47) 
IC50

>  <activity_comment>  (47) 
None

$$$$

     RDKit          

 19 21  0  0  0  0  0  0  0  0999 V2000
    0.0000    0.0000    0.0000 N   0  0  0  0  0  0  0  0  0  0  0  0
    0.0000    0.0000    0.0000 C   0  0  0  0  0  0  0  0  0  0  0  0
    0.0000    0.0000    0.0000 C   0  0  0  0  0  0  0  0  0  0  0  0
    0.0000    0.0000    0.0000 C   0  0  0  0  0  0  0  0  0  0  0  0
    0.0000    0.0000    0.0000 C   0  0  0  0  0  0  0  0  0  0  0  0
    0.0000    0.0000    0.0000 C   0  0  0  0  0  0  0  0  0  0  0  0
    0.0000    0.0000    0.0000 C   0  0  0  0  0  0  0  0  0  0  0  0
    0.0000    0.0000    0.0000 C   0  0  0  0  0  0  0  0  0  0  0  0
    0.0000    0.0000    0.0000 N   0  0  0  0  0  0  0  0  0  0  0  0
    0.0000    0.0000    0.0000 C   0  0  0  0  0  0  0  0  0  0  0  0
    0.0000    0.0000    0.0000 C   0  0  0  0  0  0  0  0  0  0  0  0
    0.0000    0.0000    0.0000 C   0  0  0  0  0  0  0  0  0  0  0  0
    0.0000    0.0000    0.0000 N   0  0  0  0  0  0  0  0  0  0  0  0
    0.0000    0.0000    0.0000 C   0  0  0  0  0  0  0  0  0  0  0  0
    0.0000    0.0000    0.0000 C   0  0  0  0  0  0  0  0  0  0  0  0
    0.0000    0.0000    0.0000 C   0  0  0  0  0  0  0  0  0  0  0  0
    0.0000    0.0000    0.0000 C   0  0  0  0  0  0  0  0  0  0  0  0
    0.0000    0.0000    0.0000 N   0  0  0  0  0  0  0  0  0  0  0  0
    0.0000    0.0000    0.0000 C   0  0  0  0  0  0  0  0  0  0  0  0
  1  2  1  0
  2  3  2  0
  3  4  1  0
  4  5  2  0
  5  6  1  0
  6  7  2  0
  1  8  1  0
  8  9  2  0
  9 10  1  0
 10 11  2  0
 11 12  1  0
 12 13  2  0
 12 14  1  0
 14 15  2  0
 15 16  1  0
 16 17  2  0
 17 18  1  0
 18 19  2  0
  7  2  1  0
 13  8  1  0
 19 14  1  0
M  END
>  <pIC50>  (48) 
5.75

>  <ChEMBL_ID>  (48) 
CHEMBL57690

>  <document_journal>  (48) 
Bioorg. Med. Chem. Lett.

>  <bao_endpoint>  (48) 
BAO_0000190

>  <potential_duplicate>  (48) 
False

>  <uo_units>  (48) 
UO_0000065

>  <canonical_smiles>  (48) 
N(c1ccccc1)c2nccc(n2)c3cccnc3

>  <parent_molecule_chembl_id>  (48) 
CHEMBL57690

>  <assay_type>  (48) 
B

>  <src_id>  (48) 
1

>  <ligand_efficiency>  (48) 
{u'le': u'0.41', u'bei': u'23.14', u'sei': u'11.33', u'lle': u'2.82'}

>  <standard_flag>  (48) 
True

>  <molecule_chembl_id>  (48) 
CHEMBL57690

>  <target_organism>  (48) 
Homo sapiens

>  <standard_units>  (48) 
nM

>  <record_id>  (48) 
97910

>  <document_chembl_id>  (48) 
CHEMBL1130562

>  <bao_format>  (48) 
BAO_0000357

>  <data_validity_description>  (48) 
None

>  <activity_id>  (48) 
939142

>  <standard_type>  (48) 
IC50

>  <target_chembl_id>  (48) 
CHEMBL1862

>  <data_validity_comment>  (48) 
None

>  <published_value>  (48) 
1.8

>  <document_year>  (48) 
1997

>  <target_pref_name>  (48) 
Tyrosine-protein kinase ABL

>  <assay_chembl_id>  (48) 
CHEMBL846547

>  <standard_relation>  (48) 
=

>  <assay_description>  (48) 
Inhibition of v-Abl tyrosine kinase.

>  <published_relation>  (48) 
=

>  <standard_value>  (48) 
1800

>  <qudt_units>  (48) 
http://www.openphacts.org/units/Nanomolar

>  <target_tax_id>  (48) 
9606

>  <bao_label>  (48) 
single protein format

>  <published_units>  (48) 
uM

>  <pchembl_value>  (48) 
5.75

>  <published_type>  (48) 
IC50

>  <activity_comment>  (48) 
None

$$$$

     RDKit          

 28 31  0  0  0  0  0  0  0  0999 V2000
    0.0000    0.0000    0.0000 O   0  0  0  0  0  0  0  0  0  0  0  0
    0.0000    0.0000    0.0000 C   0  0  0  0  0  0  0  0  0  0  0  0
    0.0000    0.0000    0.0000 N   0  0  0  0  0  0  0  0  0  0  0  0
    0.0000    0.0000    0.0000 C   0  0  0  0  0  0  0  0  0  0  0  0
    0.0000    0.0000    0.0000 C   0  0  0  0  0  0  0  0  0  0  0  0
    0.0000    0.0000    0.0000 C   0  0  0  0  0  0  0  0  0  0  0  0
    0.0000    0.0000    0.0000 C   0  0  0  0  0  0  0  0  0  0  0  0
    0.0000    0.0000    0.0000 C   0  0  0  0  0  0  0  0  0  0  0  0
    0.0000    0.0000    0.0000 N   0  0  0  0  0  0  0  0  0  0  0  0
    0.0000    0.0000    0.0000 C   0  0  0  0  0  0  0  0  0  0  0  0
    0.0000    0.0000    0.0000 N   0  0  0  0  0  0  0  0  0  0  0  0
    0.0000    0.0000    0.0000 C   0  0  0  0  0  0  0  0  0  0  0  0
    0.0000    0.0000    0.0000 C   0  0  0  0  0  0  0  0  0  0  0  0
    0.0000    0.0000    0.0000 C   0  0  0  0  0  0  0  0  0  0  0  0
    0.0000    0.0000    0.0000 N   0  0  0  0  0  0  0  0  0  0  0  0
    0.0000    0.0000    0.0000 C   0  0  0  0  0  0  0  0  0  0  0  0
    0.0000    0.0000    0.0000 C   0  0  0  0  0  0  0  0  0  0  0  0
    0.0000    0.0000    0.0000 C   0  0  0  0  0  0  0  0  0  0  0  0
    0.0000    0.0000    0.0000 C   0  0  0  0  0  0  0  0  0  0  0  0
    0.0000    0.0000    0.0000 N   0  0  0  0  0  0  0  0  0  0  0  0
    0.0000    0.0000    0.0000 C   0  0  0  0  0  0  0  0  0  0  0  0
    0.0000    0.0000    0.0000 C   0  0  0  0  0  0  0  0  0  0  0  0
    0.0000    0.0000    0.0000 C   0  0  0  0  0  0  0  0  0  0  0  0
    0.0000    0.0000    0.0000 C   0  0  0  0  0  0  0  0  0  0  0  0
    0.0000    0.0000    0.0000 C   0  0  0  0  0  0  0  0  0  0  0  0
    0.0000    0.0000    0.0000 N   0  0  0  0  0  0  0  0  0  0  0  0
    0.0000    0.0000    0.0000 C   0  0  0  0  0  0  0  0  0  0  0  0
    0.0000    0.0000    0.0000 C   0  0  0  0  0  0  0  0  0  0  0  0
  1  2  2  0
  2  3  1  0
  3  4  1  0
  4  5  2  0
  5  6  1  0
  6  7  2  0
  7  8  1  0
  8  9  1  0
  9 10  1  0
 10 11  2  0
 11 12  1  0
 12 13  2  0
 13 14  1  0
 14 15  2  0
 14 16  1  0
 16 17  2  0
 17 18  1  0
 18 19  2  0
 19 20  1  0
 20 21  2  0
  8 22  2  0
  2 23  1  0
 23 24  2  0
 24 25  1  0
 25 26  2  0
 26 27  1  0
 27 28  2  0
 22  4  1  0
 15 10  1  0
 21 16  1  0
 28 23  1  0
M  END
>  <pIC50>  (49) 
6.3

>  <ChEMBL_ID>  (49) 
CHEMBL55592

>  <document_journal>  (49) 
Bioorg. Med. Chem. Lett.

>  <bao_endpoint>  (49) 
BAO_0000190

>  <potential_duplicate>  (49) 
False

>  <uo_units>  (49) 
UO_0000065

>  <canonical_smiles>  (49) 
O=C(Nc1cccc(Nc2nccc(n2)c3cccnc3)c1)c4ccncc4

>  <parent_molecule_chembl_id>  (49) 
CHEMBL55592

>  <assay_type>  (49) 
B

>  <src_id>  (49) 
1

>  <ligand_efficiency>  (49) 
{u'le': u'0.31', u'bei': u'17.1', u'sei': u'6.8', u'lle': u'3.75'}

>  <standard_flag>  (49) 
True

>  <molecule_chembl_id>  (49) 
CHEMBL55592

>  <target_organism>  (49) 
Homo sapiens

>  <standard_units>  (49) 
nM

>  <record_id>  (49) 
97912

>  <document_chembl_id>  (49) 
CHEMBL1130562

>  <bao_format>  (49) 
BAO_0000357

>  <data_validity_description>  (49) 
None

>  <activity_id>  (49) 
941708

>  <standard_type>  (49) 
IC50

>  <target_chembl_id>  (49) 
CHEMBL1862

>  <data_validity_comment>  (49) 
None

>  <published_value>  (49) 
0.5

>  <document_year>  (49) 
1997

>  <target_pref_name>  (49) 
Tyrosine-protein kinase ABL

>  <assay_chembl_id>  (49) 
CHEMBL846547

>  <standard_relation>  (49) 
=

>  <assay_description>  (49) 
Inhibition of v-Abl tyrosine kinase.

>  <published_relation>  (49) 
=

>  <standard_value>  (49) 
500

>  <qudt_units>  (49) 
http://www.openphacts.org/units/Nanomolar

>  <target_tax_id>  (49) 
9606

>  <bao_label>  (49) 
single protein format

>  <published_units>  (49) 
uM

>  <pchembl_value>  (49) 
6.3

>  <published_type>  (49) 
IC50

>  <activity_comment>  (49) 
None

$$$$

     RDKit          

 20 22  0  0  0  0  0  0  0  0999 V2000
    0.0000    0.0000    0.0000 N   0  0  0  0  0  0  0  0  0  0  0  0
    0.0000    0.0000    0.0000 C   0  0  0  0  0  0  0  0  0  0  0  0
    0.0000    0.0000    0.0000 C   0  0  0  0  0  0  0  0  0  0  0  0
    0.0000    0.0000    0.0000 C   0  0  0  0  0  0  0  0  0  0  0  0
    0.0000    0.0000    0.0000 C   0  0  0  0  0  0  0  0  0  0  0  0
    0.0000    0.0000    0.0000 C   0  0  0  0  0  0  0  0  0  0  0  0
    0.0000    0.0000    0.0000 N   0  0  0  0  0  0  0  0  0  0  0  0
    0.0000    0.0000    0.0000 C   0  0  0  0  0  0  0  0  0  0  0  0
    0.0000    0.0000    0.0000 N   0  0  0  0  0  0  0  0  0  0  0  0
    0.0000    0.0000    0.0000 C   0  0  0  0  0  0  0  0  0  0  0  0
    0.0000    0.0000    0.0000 C   0  0  0  0  0  0  0  0  0  0  0  0
    0.0000    0.0000    0.0000 C   0  0  0  0  0  0  0  0  0  0  0  0
    0.0000    0.0000    0.0000 N   0  0  0  0  0  0  0  0  0  0  0  0
    0.0000    0.0000    0.0000 C   0  0  0  0  0  0  0  0  0  0  0  0
    0.0000    0.0000    0.0000 C   0  0  0  0  0  0  0  0  0  0  0  0
    0.0000    0.0000    0.0000 C   0  0  0  0  0  0  0  0  0  0  0  0
    0.0000    0.0000    0.0000 C   0  0  0  0  0  0  0  0  0  0  0  0
    0.0000    0.0000    0.0000 N   0  0  0  0  0  0  0  0  0  0  0  0
    0.0000    0.0000    0.0000 C   0  0  0  0  0  0  0  0  0  0  0  0
    0.0000    0.0000    0.0000 C   0  0  0  0  0  0  0  0  0  0  0  0
  1  2  1  0
  2  3  2  0
  3  4  1  0
  4  5  2  0
  5  6  1  0
  6  7  1  0
  7  8  1  0
  8  9  2  0
  9 10  1  0
 10 11  2  0
 11 12  1  0
 12 13  2  0
 12 14  1  0
 14 15  2  0
 15 16  1  0
 16 17  2  0
 17 18  1  0
 18 19  2  0
  6 20  2  0
 20  2  1  0
 13  8  1  0
 19 14  1  0
M  END
>  <pIC50>  (50) 
6.16

>  <ChEMBL_ID>  (50) 
CHEMBL57553

>  <document_journal>  (50) 
Bioorg. Med. Chem. Lett.

>  <bao_endpoint>  (50) 
BAO_0000190

>  <potential_duplicate>  (50) 
False

>  <uo_units>  (50) 
UO_0000065

>  <canonical_smiles>  (50) 
Nc1cccc(Nc2nccc(n2)c3cccnc3)c1

>  <parent_molecule_chembl_id>  (50) 
CHEMBL57553

>  <assay_type>  (50) 
B

>  <src_id>  (50) 
1

>  <ligand_efficiency>  (50) 
{u'le': u'0.42', u'bei': u'23.38', u'sei': u'8.02', u'lle': u'3.98'}

>  <standard_flag>  (50) 
True

>  <molecule_chembl_id>  (50) 
CHEMBL57553

>  <target_organism>  (50) 
Homo sapiens

>  <standard_units>  (50) 
nM

>  <record_id>  (50) 
97907

>  <document_chembl_id>  (50) 
CHEMBL1130562

>  <bao_format>  (50) 
BAO_0000357

>  <data_validity_description>  (50) 
None

>  <activity_id>  (50) 
941715

>  <standard_type>  (50) 
IC50

>  <target_chembl_id>  (50) 
CHEMBL1862

>  <data_validity_comment>  (50) 
None

>  <published_value>  (50) 
0.7

>  <document_year>  (50) 
1997

>  <target_pref_name>  (50) 
Tyrosine-protein kinase ABL

>  <assay_chembl_id>  (50) 
CHEMBL846547

>  <standard_relation>  (50) 
=

>  <assay_description>  (50) 
Inhibition of v-Abl tyrosine kinase.

>  <published_relation>  (50) 
=

>  <standard_value>  (50) 
700

>  <qudt_units>  (50) 
http://www.openphacts.org/units/Nanomolar

>  <target_tax_id>  (50) 
9606

>  <bao_label>  (50) 
single protein format

>  <published_units>  (50) 
uM

>  <pchembl_value>  (50) 
6.16

>  <published_type>  (50) 
IC50

>  <activity_comment>  (50) 
None

$$$$

     RDKit          

 22 24  0  0  0  0  0  0  0  0999 V2000
    0.0000    0.0000    0.0000 O   0  0  0  0  0  0  0  0  0  0  0  0
    0.0000    0.0000    0.0000 N   0  0  0  0  0  0  0  0  0  0  0  0
    0.0000    0.0000    0.0000 O   0  0  0  0  0  0  0  0  0  0  0  0
    0.0000    0.0000    0.0000 C   0  0  0  0  0  0  0  0  0  0  0  0
    0.0000    0.0000    0.0000 C   0  0  0  0  0  0  0  0  0  0  0  0
    0.0000    0.0000    0.0000 C   0  0  0  0  0  0  0  0  0  0  0  0
    0.0000    0.0000    0.0000 C   0  0  0  0  0  0  0  0  0  0  0  0
    0.0000    0.0000    0.0000 C   0  0  0  0  0  0  0  0  0  0  0  0
    0.0000    0.0000    0.0000 N   0  0  0  0  0  0  0  0  0  0  0  0
    0.0000    0.0000    0.0000 C   0  0  0  0  0  0  0  0  0  0  0  0
    0.0000    0.0000    0.0000 N   0  0  0  0  0  0  0  0  0  0  0  0
    0.0000    0.0000    0.0000 C   0  0  0  0  0  0  0  0  0  0  0  0
    0.0000    0.0000    0.0000 C   0  0  0  0  0  0  0  0  0  0  0  0
    0.0000    0.0000    0.0000 C   0  0  0  0  0  0  0  0  0  0  0  0
    0.0000    0.0000    0.0000 N   0  0  0  0  0  0  0  0  0  0  0  0
    0.0000    0.0000    0.0000 C   0  0  0  0  0  0  0  0  0  0  0  0
    0.0000    0.0000    0.0000 C   0  0  0  0  0  0  0  0  0  0  0  0
    0.0000    0.0000    0.0000 C   0  0  0  0  0  0  0  0  0  0  0  0
    0.0000    0.0000    0.0000 C   0  0  0  0  0  0  0  0  0  0  0  0
    0.0000    0.0000    0.0000 N   0  0  0  0  0  0  0  0  0  0  0  0
    0.0000    0.0000    0.0000 C   0  0  0  0  0  0  0  0  0  0  0  0
    0.0000    0.0000    0.0000 C   0  0  0  0  0  0  0  0  0  0  0  0
  1  2  1  0
  2  3  2  0
  2  4  1  0
  4  5  2  0
  5  6  1  0
  6  7  2  0
  7  8  1  0
  8  9  1  0
  9 10  1  0
 10 11  2  0
 11 12  1  0
 12 13  2  0
 13 14  1  0
 14 15  2  0
 14 16  1  0
 16 17  2  0
 17 18  1  0
 18 19  2  0
 19 20  1  0
 20 21  2  0
  8 22  2  0
 22  4  1  0
 15 10  1  0
 21 16  1  0
M  CHG  2   1  -1   2   1
M  END
>  <pIC50>  (51) 
4.47

>  <ChEMBL_ID>  (51) 
CHEMBL56081

>  <document_journal>  (51) 
Bioorg. Med. Chem. Lett.

>  <bao_endpoint>  (51) 
BAO_0000190

>  <potential_duplicate>  (51) 
False

>  <uo_units>  (51) 
UO_0000065

>  <canonical_smiles>  (51) 
[O-][N+](=O)c1cccc(Nc2nccc(n2)c3cccnc3)c1

>  <parent_molecule_chembl_id>  (51) 
CHEMBL56081

>  <assay_type>  (51) 
B

>  <src_id>  (51) 
1

>  <ligand_efficiency>  (51) 
{u'le': u'0.28', u'bei': u'15.24', u'sei': u'4.63', u'lle': u'1.66'}

>  <standard_flag>  (51) 
True

>  <molecule_chembl_id>  (51) 
CHEMBL56081

>  <target_organism>  (51) 
Homo sapiens

>  <standard_units>  (51) 
nM

>  <record_id>  (51) 
97917

>  <document_chembl_id>  (51) 
CHEMBL1130562

>  <bao_format>  (51) 
BAO_0000357

>  <data_validity_description>  (51) 
None

>  <activity_id>  (51) 
942926

>  <standard_type>  (51) 
IC50

>  <target_chembl_id>  (51) 
CHEMBL1862

>  <data_validity_comment>  (51) 
None

>  <published_value>  (51) 
34

>  <document_year>  (51) 
1997

>  <target_pref_name>  (51) 
Tyrosine-protein kinase ABL

>  <assay_chembl_id>  (51) 
CHEMBL846547

>  <standard_relation>  (51) 
=

>  <assay_description>  (51) 
Inhibition of v-Abl tyrosine kinase.

>  <published_relation>  (51) 
=

>  <standard_value>  (51) 
34000

>  <qudt_units>  (51) 
http://www.openphacts.org/units/Nanomolar

>  <target_tax_id>  (51) 
9606

>  <bao_label>  (51) 
single protein format

>  <published_units>  (51) 
uM

>  <pchembl_value>  (51) 
4.47

>  <published_type>  (51) 
IC50

>  <activity_comment>  (51) 
None

$$$$

     RDKit          

 28 31  0  0  0  0  0  0  0  0999 V2000
    0.0000    0.0000    0.0000 O   0  0  0  0  0  0  0  0  0  0  0  0
    0.0000    0.0000    0.0000 C   0  0  0  0  0  0  0  0  0  0  0  0
    0.0000    0.0000    0.0000 N   0  0  0  0  0  0  0  0  0  0  0  0
    0.0000    0.0000    0.0000 C   0  0  0  0  0  0  0  0  0  0  0  0
    0.0000    0.0000    0.0000 C   0  0  0  0  0  0  0  0  0  0  0  0
    0.0000    0.0000    0.0000 C   0  0  0  0  0  0  0  0  0  0  0  0
    0.0000    0.0000    0.0000 C   0  0  0  0  0  0  0  0  0  0  0  0
    0.0000    0.0000    0.0000 C   0  0  0  0  0  0  0  0  0  0  0  0
    0.0000    0.0000    0.0000 N   0  0  0  0  0  0  0  0  0  0  0  0
    0.0000    0.0000    0.0000 C   0  0  0  0  0  0  0  0  0  0  0  0
    0.0000    0.0000    0.0000 N   0  0  0  0  0  0  0  0  0  0  0  0
    0.0000    0.0000    0.0000 C   0  0  0  0  0  0  0  0  0  0  0  0
    0.0000    0.0000    0.0000 C   0  0  0  0  0  0  0  0  0  0  0  0
    0.0000    0.0000    0.0000 C   0  0  0  0  0  0  0  0  0  0  0  0
    0.0000    0.0000    0.0000 N   0  0  0  0  0  0  0  0  0  0  0  0
    0.0000    0.0000    0.0000 C   0  0  0  0  0  0  0  0  0  0  0  0
    0.0000    0.0000    0.0000 C   0  0  0  0  0  0  0  0  0  0  0  0
    0.0000    0.0000    0.0000 C   0  0  0  0  0  0  0  0  0  0  0  0
    0.0000    0.0000    0.0000 C   0  0  0  0  0  0  0  0  0  0  0  0
    0.0000    0.0000    0.0000 N   0  0  0  0  0  0  0  0  0  0  0  0
    0.0000    0.0000    0.0000 C   0  0  0  0  0  0  0  0  0  0  0  0
    0.0000    0.0000    0.0000 C   0  0  0  0  0  0  0  0  0  0  0  0
    0.0000    0.0000    0.0000 C   0  0  0  0  0  0  0  0  0  0  0  0
    0.0000    0.0000    0.0000 C   0  0  0  0  0  0  0  0  0  0  0  0
    0.0000    0.0000    0.0000 C   0  0  0  0  0  0  0  0  0  0  0  0
    0.0000    0.0000    0.0000 C   0  0  0  0  0  0  0  0  0  0  0  0
    0.0000    0.0000    0.0000 C   0  0  0  0  0  0  0  0  0  0  0  0
    0.0000    0.0000    0.0000 C   0  0  0  0  0  0  0  0  0  0  0  0
  1  2  2  0
  2  3  1  0
  3  4  1  0
  4  5  2  0
  5  6  1  0
  6  7  2  0
  7  8  1  0
  8  9  1  0
  9 10  1  0
 10 11  2  0
 11 12  1  0
 12 13  2  0
 13 14  1  0
 14 15  2  0
 14 16  1  0
 16 17  2  0
 17 18  1  0
 18 19  2  0
 19 20  1  0
 20 21  2  0
  8 22  2  0
  2 23  1  0
 23 24  1  0
 24 25  1  0
 25 26  1  0
 26 27  1  0
 27 28  1  0
 22  4  1  0
 15 10  1  0
 21 16  1  0
 28 23  1  0
M  END
>  <pIC50>  (52) 
6.35

>  <ChEMBL_ID>  (52) 
CHEMBL58142

>  <document_journal>  (52) 
Bioorg. Med. Chem. Lett.

>  <bao_endpoint>  (52) 
BAO_0000190

>  <potential_duplicate>  (52) 
False

>  <uo_units>  (52) 
UO_0000065

>  <canonical_smiles>  (52) 
O=C(Nc1cccc(Nc2nccc(n2)c3cccnc3)c1)C4CCCCC4

>  <parent_molecule_chembl_id>  (52) 
CHEMBL58142

>  <assay_type>  (52) 
B

>  <src_id>  (52) 
1

>  <ligand_efficiency>  (52) 
{u'le': u'0.31', u'bei': u'17', u'sei': u'7.95', u'lle': u'2.18'}

>  <standard_flag>  (52) 
True

>  <molecule_chembl_id>  (52) 
CHEMBL58142

>  <target_organism>  (52) 
Homo sapiens

>  <standard_units>  (52) 
nM

>  <record_id>  (52) 
97913

>  <document_chembl_id>  (52) 
CHEMBL1130562

>  <bao_format>  (52) 
BAO_0000357

>  <data_validity_description>  (52) 
None

>  <activity_id>  (52) 
944414

>  <standard_type>  (52) 
IC50

>  <target_chembl_id>  (52) 
CHEMBL1862

>  <data_validity_comment>  (52) 
None

>  <published_value>  (52) 
0.45

>  <document_year>  (52) 
1997

>  <target_pref_name>  (52) 
Tyrosine-protein kinase ABL

>  <assay_chembl_id>  (52) 
CHEMBL846547

>  <standard_relation>  (52) 
=

>  <assay_description>  (52) 
Inhibition of v-Abl tyrosine kinase.

>  <published_relation>  (52) 
=

>  <standard_value>  (52) 
450

>  <qudt_units>  (52) 
http://www.openphacts.org/units/Nanomolar

>  <target_tax_id>  (52) 
9606

>  <bao_label>  (52) 
single protein format

>  <published_units>  (52) 
uM

>  <pchembl_value>  (52) 
6.35

>  <published_type>  (52) 
IC50

>  <activity_comment>  (52) 
None

$$$$

     RDKit          

 30 33  0  0  0  0  0  0  0  0999 V2000
    0.0000    0.0000    0.0000 O   0  0  0  0  0  0  0  0  0  0  0  0
    0.0000    0.0000    0.0000 C   0  0  0  0  0  0  0  0  0  0  0  0
    0.0000    0.0000    0.0000 N   0  0  0  0  0  0  0  0  0  0  0  0
    0.0000    0.0000    0.0000 C   0  0  0  0  0  0  0  0  0  0  0  0
    0.0000    0.0000    0.0000 C   0  0  0  0  0  0  0  0  0  0  0  0
    0.0000    0.0000    0.0000 C   0  0  0  0  0  0  0  0  0  0  0  0
    0.0000    0.0000    0.0000 C   0  0  0  0  0  0  0  0  0  0  0  0
    0.0000    0.0000    0.0000 C   0  0  0  0  0  0  0  0  0  0  0  0
    0.0000    0.0000    0.0000 N   0  0  0  0  0  0  0  0  0  0  0  0
    0.0000    0.0000    0.0000 C   0  0  0  0  0  0  0  0  0  0  0  0
    0.0000    0.0000    0.0000 N   0  0  0  0  0  0  0  0  0  0  0  0
    0.0000    0.0000    0.0000 C   0  0  0  0  0  0  0  0  0  0  0  0
    0.0000    0.0000    0.0000 C   0  0  0  0  0  0  0  0  0  0  0  0
    0.0000    0.0000    0.0000 C   0  0  0  0  0  0  0  0  0  0  0  0
    0.0000    0.0000    0.0000 N   0  0  0  0  0  0  0  0  0  0  0  0
    0.0000    0.0000    0.0000 C   0  0  0  0  0  0  0  0  0  0  0  0
    0.0000    0.0000    0.0000 C   0  0  0  0  0  0  0  0  0  0  0  0
    0.0000    0.0000    0.0000 C   0  0  0  0  0  0  0  0  0  0  0  0
    0.0000    0.0000    0.0000 C   0  0  0  0  0  0  0  0  0  0  0  0
    0.0000    0.0000    0.0000 N   0  0  0  0  0  0  0  0  0  0  0  0
    0.0000    0.0000    0.0000 C   0  0  0  0  0  0  0  0  0  0  0  0
    0.0000    0.0000    0.0000 C   0  0  0  0  0  0  0  0  0  0  0  0
    0.0000    0.0000    0.0000 C   0  0  0  0  0  0  0  0  0  0  0  0
    0.0000    0.0000    0.0000 C   0  0  0  0  0  0  0  0  0  0  0  0
    0.0000    0.0000    0.0000 C   0  0  0  0  0  0  0  0  0  0  0  0
    0.0000    0.0000    0.0000 C   0  0  0  0  0  0  0  0  0  0  0  0
    0.0000    0.0000    0.0000 C   0  0  0  0  0  0  0  0  0  0  0  0
    0.0000    0.0000    0.0000 C   0  0  0  0  0  0  0  0  0  0  0  0
    0.0000    0.0000    0.0000 C   0  0  0  0  0  0  0  0  0  0  0  0
    0.0000    0.0000    0.0000 N   0  0  0  0  0  0  0  0  0  0  0  0
  1  2  2  0
  2  3  1  0
  3  4  1  0
  4  5  2  0
  5  6  1  0
  6  7  2  0
  7  8  1  0
  8  9  1  0
  9 10  1  0
 10 11  2  0
 11 12  1  0
 12 13  2  0
 13 14  1  0
 14 15  2  0
 14 16  1  0
 16 17  2  0
 17 18  1  0
 18 19  2  0
 19 20  1  0
 20 21  2  0
  8 22  2  0
  2 23  1  0
 23 24  2  0
 24 25  1  0
 25 26  2  0
 26 27  1  0
 27 28  2  0
 26 29  1  0
 29 30  3  0
 22  4  1  0
 15 10  1  0
 21 16  1  0
 28 23  1  0
M  END
>  <pIC50>  (53) 
5.89

>  <ChEMBL_ID>  (53) 
CHEMBL58580

>  <document_journal>  (53) 
Bioorg. Med. Chem. Lett.

>  <bao_endpoint>  (53) 
BAO_0000190

>  <potential_duplicate>  (53) 
False

>  <uo_units>  (53) 
UO_0000065

>  <canonical_smiles>  (53) 
O=C(Nc1cccc(Nc2nccc(n2)c3cccnc3)c1)c4ccc(cc4)C#N

>  <parent_molecule_chembl_id>  (53) 
CHEMBL58580

>  <assay_type>  (53) 
B

>  <src_id>  (53) 
1

>  <ligand_efficiency>  (53) 
{u'le': u'0.27', u'bei': u'15', u'sei': u'5.68', u'lle': u'2.31'}

>  <standard_flag>  (53) 
True

>  <molecule_chembl_id>  (53) 
CHEMBL58580

>  <target_organism>  (53) 
Homo sapiens

>  <standard_units>  (53) 
nM

>  <record_id>  (53) 
97901

>  <document_chembl_id>  (53) 
CHEMBL1130562

>  <bao_format>  (53) 
BAO_0000357

>  <data_validity_description>  (53) 
None

>  <activity_id>  (53) 
945630

>  <standard_type>  (53) 
IC50

>  <target_chembl_id>  (53) 
CHEMBL1862

>  <data_validity_comment>  (53) 
None

>  <published_value>  (53) 
1.3

>  <document_year>  (53) 
1997

>  <target_pref_name>  (53) 
Tyrosine-protein kinase ABL

>  <assay_chembl_id>  (53) 
CHEMBL846547

>  <standard_relation>  (53) 
=

>  <assay_description>  (53) 
Inhibition of v-Abl tyrosine kinase.

>  <published_relation>  (53) 
=

>  <standard_value>  (53) 
1300

>  <qudt_units>  (53) 
http://www.openphacts.org/units/Nanomolar

>  <target_tax_id>  (53) 
9606

>  <bao_label>  (53) 
single protein format

>  <published_units>  (53) 
uM

>  <pchembl_value>  (53) 
5.89

>  <published_type>  (53) 
IC50

>  <activity_comment>  (53) 
None

$$$$

     RDKit          

 25 28  0  0  0  0  0  0  0  0999 V2000
    0.0000    0.0000    0.0000 N   0  0  0  0  0  0  0  0  0  0  0  0
    0.0000    0.0000    0.0000 C   0  0  0  0  0  0  0  0  0  0  0  0
    0.0000    0.0000    0.0000 C   0  0  0  0  0  0  0  0  0  0  0  0
    0.0000    0.0000    0.0000 C   0  0  0  0  0  0  0  0  0  0  0  0
    0.0000    0.0000    0.0000 C   0  0  0  0  0  0  0  0  0  0  0  0
    0.0000    0.0000    0.0000 N   0  0  0  0  0  0  0  0  0  0  0  0
    0.0000    0.0000    0.0000 C   0  0  0  0  0  0  0  0  0  0  0  0
    0.0000    0.0000    0.0000 N   0  0  0  0  0  0  0  0  0  0  0  0
    0.0000    0.0000    0.0000 N   0  0  0  0  0  0  0  0  0  0  0  0
    0.0000    0.0000    0.0000 C   0  0  0  0  0  0  0  0  0  0  0  0
    0.0000    0.0000    0.0000 N   0  0  0  0  0  0  0  0  0  0  0  0
    0.0000    0.0000    0.0000 C   0  0  0  0  0  0  0  0  0  0  0  0
    0.0000    0.0000    0.0000 N   0  0  0  0  0  0  0  0  0  0  0  0
    0.0000    0.0000    0.0000 C   0  0  0  0  0  0  0  0  0  0  0  0
    0.0000    0.0000    0.0000 N   0  0  0  0  0  0  0  0  0  0  0  0
    0.0000    0.0000    0.0000 C   0  0  0  0  0  0  0  0  0  0  0  0
    0.0000    0.0000    0.0000 C   0  0  0  0  0  0  0  0  0  0  0  0
    0.0000    0.0000    0.0000 C   0  0  0  0  0  0  0  0  0  0  0  0
    0.0000    0.0000    0.0000 C   0  0  0  0  0  0  0  0  0  0  0  0
    0.0000    0.0000    0.0000 C   0  0  0  0  0  0  0  0  0  0  0  0
    0.0000    0.0000    0.0000 Cl  0  0  0  0  0  0  0  0  0  0  0  0
    0.0000    0.0000    0.0000 C   0  0  0  0  0  0  0  0  0  0  0  0
    0.0000    0.0000    0.0000 C   0  0  0  0  0  0  0  0  0  0  0  0
    0.0000    0.0000    0.0000 C   0  0  0  0  0  0  0  0  0  0  0  0
    0.0000    0.0000    0.0000 C   0  0  0  0  0  0  0  0  0  0  0  0
  1  2  1  0
  2  3  2  0
  3  4  1  0
  4  5  2  0
  5  6  1  0
  6  7  1  0
  7  8  1  0
  8  9  1  0
  9 10  2  0
 10 11  1  0
 11 12  2  0
 12 13  1  0
 13 14  2  0
 14 15  1  0
 15 16  1  0
 16 17  2  0
 17 18  1  0
 18 19  2  0
 19 20  1  0
 20 21  1  0
 20 22  2  0
 14 23  1  0
  5 24  1  0
 24 25  2  0
 25  2  1  0
 23  7  2  0
 23 10  1  0
 22 16  1  0
M  END
>  <pIC50>  (54) 
5.93

>  <ChEMBL_ID>  (54) 
CHEMBL332612

>  <document_journal>  (54) 
J. Med. Chem.

>  <bao_endpoint>  (54) 
BAO_0000190

>  <potential_duplicate>  (54) 
False

>  <uo_units>  (54) 
UO_0000065

>  <canonical_smiles>  (54) 
Nc1ccc(Nc2[nH]nc3ncnc(Nc4cccc(Cl)c4)c23)cc1

>  <parent_molecule_chembl_id>  (54) 
CHEMBL332612

>  <assay_type>  (54) 
B

>  <src_id>  (54) 
1

>  <ligand_efficiency>  (54) 
{u'le': u'0.32', u'bei': u'16.85', u'sei': u'5.67', u'lle': u'2.22'}

>  <standard_flag>  (54) 
True

>  <molecule_chembl_id>  (54) 
CHEMBL332612

>  <target_organism>  (54) 
Homo sapiens

>  <standard_units>  (54) 
nM

>  <record_id>  (54) 
228514

>  <document_chembl_id>  (54) 
CHEMBL1130217

>  <bao_format>  (54) 
BAO_0000357

>  <data_validity_description>  (54) 
None

>  <activity_id>  (54) 
1144369

>  <standard_type>  (54) 
IC50

>  <target_chembl_id>  (54) 
CHEMBL1862

>  <data_validity_comment>  (54) 
None

>  <published_value>  (54) 
1.18

>  <document_year>  (54) 
1997

>  <target_pref_name>  (54) 
Tyrosine-protein kinase ABL

>  <assay_chembl_id>  (54) 
CHEMBL847373

>  <standard_relation>  (54) 
=

>  <assay_description>  (54) 
Inhibitory activity against v-Abl tyrosine kinase

>  <published_relation>  (54) 
=

>  <standard_value>  (54) 
1180

>  <qudt_units>  (54) 
http://www.openphacts.org/units/Nanomolar

>  <target_tax_id>  (54) 
9606

>  <bao_label>  (54) 
single protein format

>  <published_units>  (54) 
uM

>  <pchembl_value>  (54) 
5.93

>  <published_type>  (54) 
IC50

>  <activity_comment>  (54) 
None

$$$$

     RDKit          

 23 26  0  0  0  0  0  0  0  0999 V2000
    0.0000    0.0000    0.0000 N   0  0  0  0  0  0  0  0  0  0  0  0
    0.0000    0.0000    0.0000 C   0  0  0  0  0  0  0  0  0  0  0  0
    0.0000    0.0000    0.0000 N   0  0  0  0  0  0  0  0  0  0  0  0
    0.0000    0.0000    0.0000 C   0  0  0  0  0  0  0  0  0  0  0  0
    0.0000    0.0000    0.0000 N   0  0  0  0  0  0  0  0  0  0  0  0
    0.0000    0.0000    0.0000 C   0  0  0  0  0  0  0  0  0  0  0  0
    0.0000    0.0000    0.0000 N   0  0  0  0  0  0  0  0  0  0  0  0
    0.0000    0.0000    0.0000 C   0  0  0  0  0  0  0  0  0  0  0  0
    0.0000    0.0000    0.0000 C   0  0  0  0  0  0  0  0  0  0  0  0
    0.0000    0.0000    0.0000 C   0  0  0  0  0  0  0  0  0  0  0  0
    0.0000    0.0000    0.0000 C   0  0  0  0  0  0  0  0  0  0  0  0
    0.0000    0.0000    0.0000 C   0  0  0  0  0  0  0  0  0  0  0  0
    0.0000    0.0000    0.0000 N   0  0  0  0  0  0  0  0  0  0  0  0
    0.0000    0.0000    0.0000 N   0  0  0  0  0  0  0  0  0  0  0  0
    0.0000    0.0000    0.0000 C   0  0  0  0  0  0  0  0  0  0  0  0
    0.0000    0.0000    0.0000 C   0  0  0  0  0  0  0  0  0  0  0  0
    0.0000    0.0000    0.0000 C   0  0  0  0  0  0  0  0  0  0  0  0
    0.0000    0.0000    0.0000 C   0  0  0  0  0  0  0  0  0  0  0  0
    0.0000    0.0000    0.0000 C   0  0  0  0  0  0  0  0  0  0  0  0
    0.0000    0.0000    0.0000 C   0  0  0  0  0  0  0  0  0  0  0  0
    0.0000    0.0000    0.0000 C   0  0  0  0  0  0  0  0  0  0  0  0
    0.0000    0.0000    0.0000 C   0  0  0  0  0  0  0  0  0  0  0  0
    0.0000    0.0000    0.0000 C   0  0  0  0  0  0  0  0  0  0  0  0
  1  2  2  0
  2  3  1  0
  4  1  1  0
  5  4  2  0
  6  5  1  0
  7  6  1  0
  8  6  2  0
  7  9  1  0
 10  8  1  0
  8  2  1  0
  9 11  2  0
 12  9  1  0
 13 10  2  0
 10 14  1  0
 11 15  1  0
 16 12  2  0
  3 13  1  0
 14 17  1  0
 15 18  2  0
 18 16  1  0
 17 19  2  0
 20 17  1  0
 19 21  1  0
 22 20  2  0
 21 23  2  0
 23 22  1  0
M  END
>  <pIC50>  (55) 
5.71

>  <ChEMBL_ID>  (55) 
CHEMBL332333

>  <document_journal>  (55) 
J. Med. Chem.

>  <bao_endpoint>  (55) 
BAO_0000190

>  <potential_duplicate>  (55) 
False

>  <uo_units>  (55) 
UO_0000065

>  <canonical_smiles>  (55) 
N(c1ccccc1)c2nc[nH]c3nnc(Nc4ccccc4)c23

>  <parent_molecule_chembl_id>  (55) 
CHEMBL332333

>  <assay_type>  (55) 
B

>  <src_id>  (55) 
1

>  <ligand_efficiency>  (55) 
{u'le': u'0.34', u'bei': u'18.88', u'sei': u'7.27', u'lle': u'2.03'}

>  <standard_flag>  (55) 
True

>  <molecule_chembl_id>  (55) 
CHEMBL332333

>  <target_organism>  (55) 
Homo sapiens

>  <standard_units>  (55) 
nM

>  <record_id>  (55) 
228533

>  <document_chembl_id>  (55) 
CHEMBL1130217

>  <bao_format>  (55) 
BAO_0000357

>  <data_validity_description>  (55) 
None

>  <activity_id>  (55) 
1145605

>  <standard_type>  (55) 
IC50

>  <target_chembl_id>  (55) 
CHEMBL1862

>  <data_validity_comment>  (55) 
None

>  <published_value>  (55) 
1.96

>  <document_year>  (55) 
1997

>  <target_pref_name>  (55) 
Tyrosine-protein kinase ABL

>  <assay_chembl_id>  (55) 
CHEMBL847373

>  <standard_relation>  (55) 
=

>  <assay_description>  (55) 
Inhibitory activity against v-Abl tyrosine kinase

>  <published_relation>  (55) 
=

>  <standard_value>  (55) 
1960

>  <qudt_units>  (55) 
http://www.openphacts.org/units/Nanomolar

>  <target_tax_id>  (55) 
9606

>  <bao_label>  (55) 
single protein format

>  <published_units>  (55) 
uM

>  <pchembl_value>  (55) 
5.71

>  <published_type>  (55) 
IC50

>  <activity_comment>  (55) 
None

$$$$

     RDKit          

 24 27  0  0  0  0  0  0  0  0999 V2000
    0.0000    0.0000    0.0000 N   0  0  0  0  0  0  0  0  0  0  0  0
    0.0000    0.0000    0.0000 C   0  0  0  0  0  0  0  0  0  0  0  0
    0.0000    0.0000    0.0000 C   0  0  0  0  0  0  0  0  0  0  0  0
    0.0000    0.0000    0.0000 C   0  0  0  0  0  0  0  0  0  0  0  0
    0.0000    0.0000    0.0000 C   0  0  0  0  0  0  0  0  0  0  0  0
    0.0000    0.0000    0.0000 C   0  0  0  0  0  0  0  0  0  0  0  0
    0.0000    0.0000    0.0000 C   0  0  0  0  0  0  0  0  0  0  0  0
    0.0000    0.0000    0.0000 C   0  0  0  0  0  0  0  0  0  0  0  0
    0.0000    0.0000    0.0000 N   0  0  0  0  0  0  0  0  0  0  0  0
    0.0000    0.0000    0.0000 N   0  0  0  0  0  0  0  0  0  0  0  0
    0.0000    0.0000    0.0000 C   0  0  0  0  0  0  0  0  0  0  0  0
    0.0000    0.0000    0.0000 N   0  0  0  0  0  0  0  0  0  0  0  0
    0.0000    0.0000    0.0000 C   0  0  0  0  0  0  0  0  0  0  0  0
    0.0000    0.0000    0.0000 N   0  0  0  0  0  0  0  0  0  0  0  0
    0.0000    0.0000    0.0000 C   0  0  0  0  0  0  0  0  0  0  0  0
    0.0000    0.0000    0.0000 N   0  0  0  0  0  0  0  0  0  0  0  0
    0.0000    0.0000    0.0000 C   0  0  0  0  0  0  0  0  0  0  0  0
    0.0000    0.0000    0.0000 C   0  0  0  0  0  0  0  0  0  0  0  0
    0.0000    0.0000    0.0000 C   0  0  0  0  0  0  0  0  0  0  0  0
    0.0000    0.0000    0.0000 C   0  0  0  0  0  0  0  0  0  0  0  0
    0.0000    0.0000    0.0000 C   0  0  0  0  0  0  0  0  0  0  0  0
    0.0000    0.0000    0.0000 Cl  0  0  0  0  0  0  0  0  0  0  0  0
    0.0000    0.0000    0.0000 C   0  0  0  0  0  0  0  0  0  0  0  0
    0.0000    0.0000    0.0000 C   0  0  0  0  0  0  0  0  0  0  0  0
  1  2  1  0
  2  3  2  0
  3  4  1  0
  4  5  2  0
  5  6  1  0
  6  7  2  0
  6  8  1  0
  8  9  1  0
  9 10  1  0
 10 11  2  0
 11 12  1  0
 12 13  2  0
 13 14  1  0
 14 15  2  0
 15 16  1  0
 16 17  1  0
 17 18  2  0
 18 19  1  0
 19 20  2  0
 20 21  1  0
 21 22  1  0
 21 23  2  0
 15 24  1  0
  7  2  1  0
 24  8  2  0
 24 11  1  0
 23 17  1  0
M  END
>  <pIC50>  (56) 
5.51

>  <ChEMBL_ID>  (56) 
CHEMBL332882

>  <document_journal>  (56) 
J. Med. Chem.

>  <bao_endpoint>  (56) 
BAO_0000190

>  <potential_duplicate>  (56) 
False

>  <uo_units>  (56) 
UO_0000065

>  <canonical_smiles>  (56) 
Nc1cccc(c1)c2[nH]nc3ncnc(Nc4cccc(Cl)c4)c23

>  <parent_molecule_chembl_id>  (56) 
CHEMBL332882

>  <assay_type>  (56) 
B

>  <src_id>  (56) 
1

>  <ligand_efficiency>  (56) 
{u'le': u'0.31', u'bei': u'16.36', u'sei': u'5.96', u'lle': u'1.67'}

>  <standard_flag>  (56) 
True

>  <molecule_chembl_id>  (56) 
CHEMBL332882

>  <target_organism>  (56) 
Homo sapiens

>  <standard_units>  (56) 
nM

>  <record_id>  (56) 
228521

>  <document_chembl_id>  (56) 
CHEMBL1130217

>  <bao_format>  (56) 
BAO_0000357

>  <data_validity_description>  (56) 
None

>  <activity_id>  (56) 
1145612

>  <standard_type>  (56) 
IC50

>  <target_chembl_id>  (56) 
CHEMBL1862

>  <data_validity_comment>  (56) 
None

>  <published_value>  (56) 
3.09

>  <document_year>  (56) 
1997

>  <target_pref_name>  (56) 
Tyrosine-protein kinase ABL

>  <assay_chembl_id>  (56) 
CHEMBL847373

>  <standard_relation>  (56) 
=

>  <assay_description>  (56) 
Inhibitory activity against v-Abl tyrosine kinase

>  <published_relation>  (56) 
=

>  <standard_value>  (56) 
3090

>  <qudt_units>  (56) 
http://www.openphacts.org/units/Nanomolar

>  <target_tax_id>  (56) 
9606

>  <bao_label>  (56) 
single protein format

>  <published_units>  (56) 
uM

>  <pchembl_value>  (56) 
5.51

>  <published_type>  (56) 
IC50

>  <activity_comment>  (56) 
None

$$$$

     RDKit          

 26 29  0  0  0  0  0  0  0  0999 V2000
    0.0000    0.0000    0.0000 C   0  0  0  0  0  0  0  0  0  0  0  0
    0.0000    0.0000    0.0000 O   0  0  0  0  0  0  0  0  0  0  0  0
    0.0000    0.0000    0.0000 C   0  0  0  0  0  0  0  0  0  0  0  0
    0.0000    0.0000    0.0000 C   0  0  0  0  0  0  0  0  0  0  0  0
    0.0000    0.0000    0.0000 C   0  0  0  0  0  0  0  0  0  0  0  0
    0.0000    0.0000    0.0000 C   0  0  0  0  0  0  0  0  0  0  0  0
    0.0000    0.0000    0.0000 C   0  0  0  0  0  0  0  0  0  0  0  0
    0.0000    0.0000    0.0000 N   0  0  0  0  0  0  0  0  0  0  0  0
    0.0000    0.0000    0.0000 C   0  0  0  0  0  0  0  0  0  0  0  0
    0.0000    0.0000    0.0000 N   0  0  0  0  0  0  0  0  0  0  0  0
    0.0000    0.0000    0.0000 N   0  0  0  0  0  0  0  0  0  0  0  0
    0.0000    0.0000    0.0000 C   0  0  0  0  0  0  0  0  0  0  0  0
    0.0000    0.0000    0.0000 N   0  0  0  0  0  0  0  0  0  0  0  0
    0.0000    0.0000    0.0000 C   0  0  0  0  0  0  0  0  0  0  0  0
    0.0000    0.0000    0.0000 N   0  0  0  0  0  0  0  0  0  0  0  0
    0.0000    0.0000    0.0000 C   0  0  0  0  0  0  0  0  0  0  0  0
    0.0000    0.0000    0.0000 N   0  0  0  0  0  0  0  0  0  0  0  0
    0.0000    0.0000    0.0000 C   0  0  0  0  0  0  0  0  0  0  0  0
    0.0000    0.0000    0.0000 C   0  0  0  0  0  0  0  0  0  0  0  0
    0.0000    0.0000    0.0000 C   0  0  0  0  0  0  0  0  0  0  0  0
    0.0000    0.0000    0.0000 C   0  0  0  0  0  0  0  0  0  0  0  0
    0.0000    0.0000    0.0000 C   0  0  0  0  0  0  0  0  0  0  0  0
    0.0000    0.0000    0.0000 Cl  0  0  0  0  0  0  0  0  0  0  0  0
    0.0000    0.0000    0.0000 C   0  0  0  0  0  0  0  0  0  0  0  0
    0.0000    0.0000    0.0000 C   0  0  0  0  0  0  0  0  0  0  0  0
    0.0000    0.0000    0.0000 C   0  0  0  0  0  0  0  0  0  0  0  0
  1  2  1  0
  2  3  1  0
  3  4  2  0
  4  5  1  0
  5  6  2  0
  6  7  1  0
  7  8  1  0
  8  9  1  0
  9 10  1  0
 10 11  1  0
 11 12  2  0
 12 13  1  0
 13 14  2  0
 14 15  1  0
 15 16  2  0
 16 17  1  0
 17 18  1  0
 18 19  2  0
 19 20  1  0
 20 21  2  0
 21 22  1  0
 22 23  1  0
 22 24  2  0
 16 25  1  0
  7 26  2  0
 26  3  1  0
 25  9  2  0
 25 12  1  0
 24 18  1  0
M  END
>  <pIC50>  (57) 
5.47

>  <ChEMBL_ID>  (57) 
CHEMBL120979

>  <document_journal>  (57) 
J. Med. Chem.

>  <bao_endpoint>  (57) 
BAO_0000190

>  <potential_duplicate>  (57) 
False

>  <uo_units>  (57) 
UO_0000065

>  <canonical_smiles>  (57) 
COc1cccc(Nc2[nH]nc3ncnc(Nc4cccc(Cl)c4)c23)c1

>  <parent_molecule_chembl_id>  (57) 
CHEMBL120979

>  <assay_type>  (57) 
B

>  <src_id>  (57) 
1

>  <ligand_efficiency>  (57) 
{u'le': u'0.29', u'bei': u'14.91', u'sei': u'6.23', u'lle': u'1.03'}

>  <standard_flag>  (57) 
True

>  <molecule_chembl_id>  (57) 
CHEMBL120979

>  <target_organism>  (57) 
Homo sapiens

>  <standard_units>  (57) 
nM

>  <record_id>  (57) 
228526

>  <document_chembl_id>  (57) 
CHEMBL1130217

>  <bao_format>  (57) 
BAO_0000357

>  <data_validity_description>  (57) 
None

>  <activity_id>  (57) 
1148290

>  <standard_type>  (57) 
IC50

>  <target_chembl_id>  (57) 
CHEMBL1862

>  <data_validity_comment>  (57) 
None

>  <published_value>  (57) 
3.4

>  <document_year>  (57) 
1997

>  <target_pref_name>  (57) 
Tyrosine-protein kinase ABL

>  <assay_chembl_id>  (57) 
CHEMBL847373

>  <standard_relation>  (57) 
=

>  <assay_description>  (57) 
Inhibitory activity against v-Abl tyrosine kinase

>  <published_relation>  (57) 
=

>  <standard_value>  (57) 
3400

>  <qudt_units>  (57) 
http://www.openphacts.org/units/Nanomolar

>  <target_tax_id>  (57) 
9606

>  <bao_label>  (57) 
single protein format

>  <published_units>  (57) 
uM

>  <pchembl_value>  (57) 
5.47

>  <published_type>  (57) 
IC50

>  <activity_comment>  (57) 
None

$$$$

     RDKit          

 27 29  0  0  0  0  0  0  0  0999 V2000
    0.0000    0.0000    0.0000 F   0  0  0  0  0  0  0  0  0  0  0  0
    0.0000    0.0000    0.0000 C   0  0  0  0  0  0  0  0  0  0  0  0
    0.0000    0.0000    0.0000 F   0  0  0  0  0  0  0  0  0  0  0  0
    0.0000    0.0000    0.0000 F   0  0  0  0  0  0  0  0  0  0  0  0
    0.0000    0.0000    0.0000 C   0  0  0  0  0  0  0  0  0  0  0  0
    0.0000    0.0000    0.0000 C   0  0  0  0  0  0  0  0  0  0  0  0
    0.0000    0.0000    0.0000 C   0  0  0  0  0  0  0  0  0  0  0  0
    0.0000    0.0000    0.0000 C   0  0  0  0  0  0  0  0  0  0  0  0
    0.0000    0.0000    0.0000 C   0  0  0  0  0  0  0  0  0  0  0  0
    0.0000    0.0000    0.0000 N   0  0  0  0  0  0  0  0  0  0  0  0
    0.0000    0.0000    0.0000 C   0  0  0  0  0  0  0  0  0  0  0  0
    0.0000    0.0000    0.0000 O   0  0  0  0  0  0  0  0  0  0  0  0
    0.0000    0.0000    0.0000 C   0  0  0  0  0  0  0  0  0  0  0  0
    0.0000    0.0000    0.0000 C   0  0  0  0  0  0  0  0  0  0  0  0
    0.0000    0.0000    0.0000 C   0  0  0  0  0  0  0  0  0  0  0  0
    0.0000    0.0000    0.0000 C   0  0  0  0  0  0  0  0  0  0  0  0
    0.0000    0.0000    0.0000 C   0  0  0  0  0  0  0  0  0  0  0  0
    0.0000    0.0000    0.0000 C   0  0  0  0  0  0  0  0  0  0  0  0
    0.0000    0.0000    0.0000 N   0  0  0  0  0  0  0  0  0  0  0  0
    0.0000    0.0000    0.0000 C   0  0  0  0  0  0  0  0  0  0  0  0
    0.0000    0.0000    0.0000 C   0  0  0  0  0  0  0  0  0  0  0  0
    0.0000    0.0000    0.0000 C   0  0  0  0  0  0  0  0  0  0  0  0
    0.0000    0.0000    0.0000 C   0  0  0  0  0  0  0  0  0  0  0  0
    0.0000    0.0000    0.0000 N   0  0  0  0  0  0  0  0  0  0  0  0
    0.0000    0.0000    0.0000 C   0  0  0  0  0  0  0  0  0  0  0  0
    0.0000    0.0000    0.0000 C   0  0  0  0  0  0  0  0  0  0  0  0
    0.0000    0.0000    0.0000 C   0  0  0  0  0  0  0  0  0  0  0  0
  1  2  1  0
  2  3  1  0
  2  4  1  0
  2  5  1  0
  5  6  2  0
  6  7  1  0
  7  8  2  0
  8  9  1  0
  9 10  1  0
 10 11  1  0
 11 12  2  0
 11 13  1  0
 13 14  2  0
 14 15  1  0
 15 16  2  0
 16 17  1  0
 17 18  2  0
 18 19  1  0
 19 20  1  0
 20 21  1  0
 21 22  2  0
 22 23  1  0
 23 24  2  0
 24 25  1  0
 25 26  2  0
  9 27  2  0
 27  5  1  0
 18 13  1  0
 26 21  1  0
M  END
>  <pIC50>  (58) 
5.55

>  <ChEMBL_ID>  (58) 
CHEMBL153843

>  <document_journal>  (58) 
J. Med. Chem.

>  <bao_endpoint>  (58) 
BAO_0000190

>  <potential_duplicate>  (58) 
False

>  <uo_units>  (58) 
UO_0000065

>  <canonical_smiles>  (58) 
FC(F)(F)c1cccc(NC(=O)c2ccccc2NCc3ccncc3)c1

>  <parent_molecule_chembl_id>  (58) 
CHEMBL153843

>  <assay_type>  (58) 
B

>  <src_id>  (58) 
1

>  <ligand_efficiency>  (58) 
{u'le': u'0.28', u'bei': u'14.94', u'sei': u'10.27', u'lle': u'1.75'}

>  <standard_flag>  (58) 
True

>  <molecule_chembl_id>  (58) 
CHEMBL153843

>  <target_organism>  (58) 
Homo sapiens

>  <standard_units>  (58) 
nM

>  <record_id>  (58) 
300013

>  <document_chembl_id>  (58) 
CHEMBL1135689

>  <bao_format>  (58) 
BAO_0000019

>  <data_validity_description>  (58) 
None

>  <activity_id>  (58) 
1152822

>  <standard_type>  (58) 
IC50

>  <target_chembl_id>  (58) 
CHEMBL1862

>  <data_validity_comment>  (58) 
None

>  <published_value>  (58) 
2820

>  <document_year>  (58) 
2002

>  <target_pref_name>  (58) 
Tyrosine-protein kinase ABL

>  <assay_chembl_id>  (58) 
CHEMBL819334

>  <standard_relation>  (58) 
=

>  <assay_description>  (58) 
In vitro inhibition of c-Abl tyrosine kinase expressed in baculovirus

>  <published_relation>  (58) 
=

>  <standard_value>  (58) 
2820

>  <qudt_units>  (58) 
http://www.openphacts.org/units/Nanomolar

>  <target_tax_id>  (58) 
9606

>  <bao_label>  (58) 
assay format

>  <published_units>  (58) 
nM

>  <pchembl_value>  (58) 
5.55

>  <published_type>  (58) 
IC50

>  <activity_comment>  (58) 
None

$$$$

     RDKit          

 25 28  0  0  0  0  0  0  0  0999 V2000
    0.0000    0.0000    0.0000 N   0  0  0  0  0  0  0  0  0  0  0  0
    0.0000    0.0000    0.0000 C   0  0  0  0  0  0  0  0  0  0  0  0
    0.0000    0.0000    0.0000 C   0  0  0  0  0  0  0  0  0  0  0  0
    0.0000    0.0000    0.0000 C   0  0  0  0  0  0  0  0  0  0  0  0
    0.0000    0.0000    0.0000 N   0  0  0  0  0  0  0  0  0  0  0  0
    0.0000    0.0000    0.0000 C   0  0  0  0  0  0  0  0  0  0  0  0
    0.0000    0.0000    0.0000 N   0  0  0  0  0  0  0  0  0  0  0  0
    0.0000    0.0000    0.0000 N   0  0  0  0  0  0  0  0  0  0  0  0
    0.0000    0.0000    0.0000 C   0  0  0  0  0  0  0  0  0  0  0  0
    0.0000    0.0000    0.0000 C   0  0  0  0  0  0  0  0  0  0  0  0
    0.0000    0.0000    0.0000 C   0  0  0  0  0  0  0  0  0  0  0  0
    0.0000    0.0000    0.0000 C   0  0  0  0  0  0  0  0  0  0  0  0
    0.0000    0.0000    0.0000 C   0  0  0  0  0  0  0  0  0  0  0  0
    0.0000    0.0000    0.0000 C   0  0  0  0  0  0  0  0  0  0  0  0
    0.0000    0.0000    0.0000 Cl  0  0  0  0  0  0  0  0  0  0  0  0
    0.0000    0.0000    0.0000 C   0  0  0  0  0  0  0  0  0  0  0  0
    0.0000    0.0000    0.0000 N   0  0  0  0  0  0  0  0  0  0  0  0
    0.0000    0.0000    0.0000 N   0  0  0  0  0  0  0  0  0  0  0  0
    0.0000    0.0000    0.0000 C   0  0  0  0  0  0  0  0  0  0  0  0
    0.0000    0.0000    0.0000 C   0  0  0  0  0  0  0  0  0  0  0  0
    0.0000    0.0000    0.0000 C   0  0  0  0  0  0  0  0  0  0  0  0
    0.0000    0.0000    0.0000 C   0  0  0  0  0  0  0  0  0  0  0  0
    0.0000    0.0000    0.0000 C   0  0  0  0  0  0  0  0  0  0  0  0
    0.0000    0.0000    0.0000 C   0  0  0  0  0  0  0  0  0  0  0  0
    0.0000    0.0000    0.0000 C   0  0  0  0  0  0  0  0  0  0  0  0
  1  2  2  0
  2  3  1  0
  3  4  2  0
  4  5  1  0
  1  6  1  0
  6  7  2  0
  7  4  1  0
  8  2  1  0
  9  8  1  0
 10  9  2  0
  9 11  1  0
 12 10  1  0
 11 13  2  0
 14 12  2  0
 15 13  1  0
 13 14  1  0
 16  3  1  0
 17 16  2  0
 16 18  1  0
  5 17  1  0
 18 19  1  0
 19 20  1  0
 20 21  2  0
 22 20  1  0
 21 23  1  0
 24 22  2  0
 23 25  2  0
 25 24  1  0
M  END
>  <pIC50>  (59) 
5.18

>  <ChEMBL_ID>  (59) 
CHEMBL121796

>  <document_journal>  (59) 
J. Med. Chem.

>  <bao_endpoint>  (59) 
BAO_0000190

>  <potential_duplicate>  (59) 
False

>  <uo_units>  (59) 
UO_0000065

>  <canonical_smiles>  (59) 
Clc1cccc(Nc2[nH]cnc3nnc(NCc4ccccc4)c23)c1

>  <parent_molecule_chembl_id>  (59) 
CHEMBL121796

>  <assay_type>  (59) 
B

>  <src_id>  (59) 
1

>  <ligand_efficiency>  (59) 
{u'le': u'0.28', u'bei': u'14.77', u'sei': u'6.6', u'lle': u'1.28'}

>  <standard_flag>  (59) 
True

>  <molecule_chembl_id>  (59) 
CHEMBL121796

>  <target_organism>  (59) 
Homo sapiens

>  <standard_units>  (59) 
nM

>  <record_id>  (59) 
228512

>  <document_chembl_id>  (59) 
CHEMBL1130217

>  <bao_format>  (59) 
BAO_0000357

>  <data_validity_description>  (59) 
None

>  <activity_id>  (59) 
1155867

>  <standard_type>  (59) 
IC50

>  <target_chembl_id>  (59) 
CHEMBL1862

>  <data_validity_comment>  (59) 
None

>  <published_value>  (59) 
6.6

>  <document_year>  (59) 
1997

>  <target_pref_name>  (59) 
Tyrosine-protein kinase ABL

>  <assay_chembl_id>  (59) 
CHEMBL847373

>  <standard_relation>  (59) 
=

>  <assay_description>  (59) 
Inhibitory activity against v-Abl tyrosine kinase

>  <published_relation>  (59) 
=

>  <standard_value>  (59) 
6600

>  <qudt_units>  (59) 
http://www.openphacts.org/units/Nanomolar

>  <target_tax_id>  (59) 
9606

>  <bao_label>  (59) 
single protein format

>  <published_units>  (59) 
uM

>  <pchembl_value>  (59) 
5.18

>  <published_type>  (59) 
IC50

>  <activity_comment>  (59) 
None

$$$$

     RDKit          

 18 20  0  0  0  0  0  0  0  0999 V2000
    0.0000    0.0000    0.0000 N   0  0  0  0  0  0  0  0  0  0  0  0
    0.0000    0.0000    0.0000 C   0  0  0  0  0  0  0  0  0  0  0  0
    0.0000    0.0000    0.0000 C   0  0  0  0  0  0  0  0  0  0  0  0
    0.0000    0.0000    0.0000 C   0  0  0  0  0  0  0  0  0  0  0  0
    0.0000    0.0000    0.0000 N   0  0  0  0  0  0  0  0  0  0  0  0
    0.0000    0.0000    0.0000 C   0  0  0  0  0  0  0  0  0  0  0  0
    0.0000    0.0000    0.0000 N   0  0  0  0  0  0  0  0  0  0  0  0
    0.0000    0.0000    0.0000 N   0  0  0  0  0  0  0  0  0  0  0  0
    0.0000    0.0000    0.0000 C   0  0  0  0  0  0  0  0  0  0  0  0
    0.0000    0.0000    0.0000 N   0  0  0  0  0  0  0  0  0  0  0  0
    0.0000    0.0000    0.0000 N   0  0  0  0  0  0  0  0  0  0  0  0
    0.0000    0.0000    0.0000 C   0  0  0  0  0  0  0  0  0  0  0  0
    0.0000    0.0000    0.0000 C   0  0  0  0  0  0  0  0  0  0  0  0
    0.0000    0.0000    0.0000 C   0  0  0  0  0  0  0  0  0  0  0  0
    0.0000    0.0000    0.0000 C   0  0  0  0  0  0  0  0  0  0  0  0
    0.0000    0.0000    0.0000 C   0  0  0  0  0  0  0  0  0  0  0  0
    0.0000    0.0000    0.0000 C   0  0  0  0  0  0  0  0  0  0  0  0
    0.0000    0.0000    0.0000 Cl  0  0  0  0  0  0  0  0  0  0  0  0
  1  2  2  0
  2  3  1  0
  3  4  2  0
  4  5  1  0
  1  6  1  0
  6  7  2  0
  7  4  1  0
  8  2  1  0
  9  3  1  0
 10  9  2  0
  9 11  1  0
  5 10  1  0
 11 12  1  0
 12 13  2  0
 14 12  1  0
 13 15  1  0
 16 14  2  0
 15 17  2  0
 17 16  1  0
 16 18  1  0
M  END
>  <pIC50>  (60) 
6.39

>  <ChEMBL_ID>  (60) 
CHEMBL121190

>  <document_journal>  (60) 
J. Med. Chem.

>  <bao_endpoint>  (60) 
BAO_0000190

>  <potential_duplicate>  (60) 
False

>  <uo_units>  (60) 
UO_0000065

>  <canonical_smiles>  (60) 
Nc1[nH]cnc2nnc(Nc3cccc(Cl)c3)c12

>  <parent_molecule_chembl_id>  (60) 
CHEMBL121190

>  <assay_type>  (60) 
B

>  <src_id>  (60) 
1

>  <ligand_efficiency>  (60) 
{u'le': u'0.48', u'bei': u'24.5', u'sei': u'6.9', u'lle': u'4.63'}

>  <standard_flag>  (60) 
True

>  <molecule_chembl_id>  (60) 
CHEMBL121190

>  <target_organism>  (60) 
Homo sapiens

>  <standard_units>  (60) 
nM

>  <record_id>  (60) 
228504

>  <document_chembl_id>  (60) 
CHEMBL1130217

>  <bao_format>  (60) 
BAO_0000357

>  <data_validity_description>  (60) 
None

>  <activity_id>  (60) 
1158328

>  <standard_type>  (60) 
IC50

>  <target_chembl_id>  (60) 
CHEMBL1862

>  <data_validity_comment>  (60) 
None

>  <published_value>  (60) 
0.41

>  <document_year>  (60) 
1997

>  <target_pref_name>  (60) 
Tyrosine-protein kinase ABL

>  <assay_chembl_id>  (60) 
CHEMBL847373

>  <standard_relation>  (60) 
=

>  <assay_description>  (60) 
Inhibitory activity against v-Abl tyrosine kinase

>  <published_relation>  (60) 
=

>  <standard_value>  (60) 
410

>  <qudt_units>  (60) 
http://www.openphacts.org/units/Nanomolar

>  <target_tax_id>  (60) 
9606

>  <bao_label>  (60) 
single protein format

>  <published_units>  (60) 
uM

>  <pchembl_value>  (60) 
6.39

>  <published_type>  (60) 
IC50

>  <activity_comment>  (60) 
None

$$$$

     RDKit          

 24 27  0  0  0  0  0  0  0  0999 V2000
    0.0000    0.0000    0.0000 O   0  0  0  0  0  0  0  0  0  0  0  0
    0.0000    0.0000    0.0000 C   0  0  0  0  0  0  0  0  0  0  0  0
    0.0000    0.0000    0.0000 C   0  0  0  0  0  0  0  0  0  0  0  0
    0.0000    0.0000    0.0000 C   0  0  0  0  0  0  0  0  0  0  0  0
    0.0000    0.0000    0.0000 C   0  0  0  0  0  0  0  0  0  0  0  0
    0.0000    0.0000    0.0000 C   0  0  0  0  0  0  0  0  0  0  0  0
    0.0000    0.0000    0.0000 C   0  0  0  0  0  0  0  0  0  0  0  0
    0.0000    0.0000    0.0000 C   0  0  0  0  0  0  0  0  0  0  0  0
    0.0000    0.0000    0.0000 N   0  0  0  0  0  0  0  0  0  0  0  0
    0.0000    0.0000    0.0000 N   0  0  0  0  0  0  0  0  0  0  0  0
    0.0000    0.0000    0.0000 C   0  0  0  0  0  0  0  0  0  0  0  0
    0.0000    0.0000    0.0000 N   0  0  0  0  0  0  0  0  0  0  0  0
    0.0000    0.0000    0.0000 C   0  0  0  0  0  0  0  0  0  0  0  0
    0.0000    0.0000    0.0000 N   0  0  0  0  0  0  0  0  0  0  0  0
    0.0000    0.0000    0.0000 C   0  0  0  0  0  0  0  0  0  0  0  0
    0.0000    0.0000    0.0000 N   0  0  0  0  0  0  0  0  0  0  0  0
    0.0000    0.0000    0.0000 C   0  0  0  0  0  0  0  0  0  0  0  0
    0.0000    0.0000    0.0000 C   0  0  0  0  0  0  0  0  0  0  0  0
    0.0000    0.0000    0.0000 C   0  0  0  0  0  0  0  0  0  0  0  0
    0.0000    0.0000    0.0000 C   0  0  0  0  0  0  0  0  0  0  0  0
    0.0000    0.0000    0.0000 C   0  0  0  0  0  0  0  0  0  0  0  0
    0.0000    0.0000    0.0000 Cl  0  0  0  0  0  0  0  0  0  0  0  0
    0.0000    0.0000    0.0000 C   0  0  0  0  0  0  0  0  0  0  0  0
    0.0000    0.0000    0.0000 C   0  0  0  0  0  0  0  0  0  0  0  0
  1  2  1  0
  2  3  2  0
  3  4  1  0
  4  5  2  0
  5  6  1  0
  6  7  2  0
  6  8  1  0
  8  9  1  0
  9 10  1  0
 10 11  2  0
 11 12  1  0
 12 13  2  0
 13 14  1  0
 14 15  2  0
 15 16  1  0
 16 17  1  0
 17 18  2  0
 18 19  1  0
 19 20  2  0
 20 21  1  0
 21 22  1  0
 21 23  2  0
 15 24  1  0
  7  2  1  0
 24  8  2  0
 24 11  1  0
 23 17  1  0
M  END
>  <pIC50>  (61) 
6.75

>  <ChEMBL_ID>  (61) 
CHEMBL331906

>  <document_journal>  (61) 
J. Med. Chem.

>  <bao_endpoint>  (61) 
BAO_0000190

>  <potential_duplicate>  (61) 
False

>  <uo_units>  (61) 
UO_0000065

>  <canonical_smiles>  (61) 
Oc1cccc(c1)c2[nH]nc3ncnc(Nc4cccc(Cl)c4)c23

>  <parent_molecule_chembl_id>  (61) 
CHEMBL331906

>  <assay_type>  (61) 
B

>  <src_id>  (61) 
1

>  <ligand_efficiency>  (61) 
{u'le': u'0.38', u'bei': u'19.97', u'sei': u'7.78', u'lle': u'2.39'}

>  <standard_flag>  (61) 
True

>  <molecule_chembl_id>  (61) 
CHEMBL331906

>  <target_organism>  (61) 
Homo sapiens

>  <standard_units>  (61) 
nM

>  <record_id>  (61) 
228507

>  <document_chembl_id>  (61) 
CHEMBL1130217

>  <bao_format>  (61) 
BAO_0000357

>  <data_validity_description>  (61) 
None

>  <activity_id>  (61) 
1158335

>  <standard_type>  (61) 
IC50

>  <target_chembl_id>  (61) 
CHEMBL1862

>  <data_validity_comment>  (61) 
None

>  <published_value>  (61) 
0.18

>  <document_year>  (61) 
1997

>  <target_pref_name>  (61) 
Tyrosine-protein kinase ABL

>  <assay_chembl_id>  (61) 
CHEMBL847373

>  <standard_relation>  (61) 
=

>  <assay_description>  (61) 
Inhibitory activity against v-Abl tyrosine kinase

>  <published_relation>  (61) 
=

>  <standard_value>  (61) 
180

>  <qudt_units>  (61) 
http://www.openphacts.org/units/Nanomolar

>  <target_tax_id>  (61) 
9606

>  <bao_label>  (61) 
single protein format

>  <published_units>  (61) 
uM

>  <pchembl_value>  (61) 
6.75

>  <published_type>  (61) 
IC50

>  <activity_comment>  (61) 
None

$$$$

     RDKit          

 24 27  0  0  0  0  0  0  0  0999 V2000
    0.0000    0.0000    0.0000 N   0  0  0  0  0  0  0  0  0  0  0  0
    0.0000    0.0000    0.0000 C   0  0  0  0  0  0  0  0  0  0  0  0
    0.0000    0.0000    0.0000 C   0  0  0  0  0  0  0  0  0  0  0  0
    0.0000    0.0000    0.0000 C   0  0  0  0  0  0  0  0  0  0  0  0
    0.0000    0.0000    0.0000 C   0  0  0  0  0  0  0  0  0  0  0  0
    0.0000    0.0000    0.0000 C   0  0  0  0  0  0  0  0  0  0  0  0
    0.0000    0.0000    0.0000 C   0  0  0  0  0  0  0  0  0  0  0  0
    0.0000    0.0000    0.0000 C   0  0  0  0  0  0  0  0  0  0  0  0
    0.0000    0.0000    0.0000 N   0  0  0  0  0  0  0  0  0  0  0  0
    0.0000    0.0000    0.0000 N   0  0  0  0  0  0  0  0  0  0  0  0
    0.0000    0.0000    0.0000 C   0  0  0  0  0  0  0  0  0  0  0  0
    0.0000    0.0000    0.0000 N   0  0  0  0  0  0  0  0  0  0  0  0
    0.0000    0.0000    0.0000 C   0  0  0  0  0  0  0  0  0  0  0  0
    0.0000    0.0000    0.0000 N   0  0  0  0  0  0  0  0  0  0  0  0
    0.0000    0.0000    0.0000 C   0  0  0  0  0  0  0  0  0  0  0  0
    0.0000    0.0000    0.0000 N   0  0  0  0  0  0  0  0  0  0  0  0
    0.0000    0.0000    0.0000 C   0  0  0  0  0  0  0  0  0  0  0  0
    0.0000    0.0000    0.0000 C   0  0  0  0  0  0  0  0  0  0  0  0
    0.0000    0.0000    0.0000 C   0  0  0  0  0  0  0  0  0  0  0  0
    0.0000    0.0000    0.0000 C   0  0  0  0  0  0  0  0  0  0  0  0
    0.0000    0.0000    0.0000 C   0  0  0  0  0  0  0  0  0  0  0  0
    0.0000    0.0000    0.0000 Cl  0  0  0  0  0  0  0  0  0  0  0  0
    0.0000    0.0000    0.0000 C   0  0  0  0  0  0  0  0  0  0  0  0
    0.0000    0.0000    0.0000 C   0  0  0  0  0  0  0  0  0  0  0  0
  1  2  1  0
  2  3  2  0
  3  4  1  0
  4  5  2  0
  5  6  1  0
  6  7  2  0
  5  8  1  0
  8  9  1  0
  9 10  1  0
 10 11  2  0
 11 12  1  0
 12 13  2  0
 13 14  1  0
 14 15  2  0
 15 16  1  0
 16 17  1  0
 17 18  2  0
 18 19  1  0
 19 20  2  0
 20 21  1  0
 21 22  1  0
 21 23  2  0
 15 24  1  0
  7  2  1  0
 24  8  2  0
 24 11  1  0
 23 17  1  0
M  END
>  <pIC50>  (62) 
5.44

>  <ChEMBL_ID>  (62) 
CHEMBL332906

>  <document_journal>  (62) 
J. Med. Chem.

>  <bao_endpoint>  (62) 
BAO_0000190

>  <potential_duplicate>  (62) 
False

>  <uo_units>  (62) 
UO_0000065

>  <canonical_smiles>  (62) 
Nc1ccc(cc1)c2[nH]nc3ncnc(Nc4cccc(Cl)c4)c23

>  <parent_molecule_chembl_id>  (62) 
CHEMBL332906

>  <assay_type>  (62) 
B

>  <src_id>  (62) 
1

>  <ligand_efficiency>  (62) 
{u'le': u'0.31', u'bei': u'16.16', u'sei': u'5.88', u'lle': u'1.6'}

>  <standard_flag>  (62) 
True

>  <molecule_chembl_id>  (62) 
CHEMBL332906

>  <target_organism>  (62) 
Homo sapiens

>  <standard_units>  (62) 
nM

>  <record_id>  (62) 
228519

>  <document_chembl_id>  (62) 
CHEMBL1130217

>  <bao_format>  (62) 
BAO_0000357

>  <data_validity_description>  (62) 
None

>  <activity_id>  (62) 
1158343

>  <standard_type>  (62) 
IC50

>  <target_chembl_id>  (62) 
CHEMBL1862

>  <data_validity_comment>  (62) 
None

>  <published_value>  (62) 
3.6

>  <document_year>  (62) 
1997

>  <target_pref_name>  (62) 
Tyrosine-protein kinase ABL

>  <assay_chembl_id>  (62) 
CHEMBL847373

>  <standard_relation>  (62) 
=

>  <assay_description>  (62) 
Inhibitory activity against v-Abl tyrosine kinase

>  <published_relation>  (62) 
=

>  <standard_value>  (62) 
3600

>  <qudt_units>  (62) 
http://www.openphacts.org/units/Nanomolar

>  <target_tax_id>  (62) 
9606

>  <bao_label>  (62) 
single protein format

>  <published_units>  (62) 
uM

>  <pchembl_value>  (62) 
5.44

>  <published_type>  (62) 
IC50

>  <activity_comment>  (62) 
None

$$$$

     RDKit          

 19 21  0  0  0  0  0  0  0  0999 V2000
    0.0000    0.0000    0.0000 N   0  0  0  0  0  0  0  0  0  0  0  0
    0.0000    0.0000    0.0000 C   0  0  0  0  0  0  0  0  0  0  0  0
    0.0000    0.0000    0.0000 N   0  0  0  0  0  0  0  0  0  0  0  0
    0.0000    0.0000    0.0000 C   0  0  0  0  0  0  0  0  0  0  0  0
    0.0000    0.0000    0.0000 N   0  0  0  0  0  0  0  0  0  0  0  0
    0.0000    0.0000    0.0000 C   0  0  0  0  0  0  0  0  0  0  0  0
    0.0000    0.0000    0.0000 C   0  0  0  0  0  0  0  0  0  0  0  0
    0.0000    0.0000    0.0000 N   0  0  0  0  0  0  0  0  0  0  0  0
    0.0000    0.0000    0.0000 C   0  0  0  0  0  0  0  0  0  0  0  0
    0.0000    0.0000    0.0000 C   0  0  0  0  0  0  0  0  0  0  0  0
    0.0000    0.0000    0.0000 C   0  0  0  0  0  0  0  0  0  0  0  0
    0.0000    0.0000    0.0000 C   0  0  0  0  0  0  0  0  0  0  0  0
    0.0000    0.0000    0.0000 C   0  0  0  0  0  0  0  0  0  0  0  0
    0.0000    0.0000    0.0000 Cl  0  0  0  0  0  0  0  0  0  0  0  0
    0.0000    0.0000    0.0000 C   0  0  0  0  0  0  0  0  0  0  0  0
    0.0000    0.0000    0.0000 N   0  0  0  0  0  0  0  0  0  0  0  0
    0.0000    0.0000    0.0000 N   0  0  0  0  0  0  0  0  0  0  0  0
    0.0000    0.0000    0.0000 C   0  0  0  0  0  0  0  0  0  0  0  0
    0.0000    0.0000    0.0000 N   0  0  0  0  0  0  0  0  0  0  0  0
  1  2  1  0
  2  3  1  0
  3  4  2  0
  4  5  1  0
  4  6  1  0
  6  7  2  0
  7  8  1  0
  8  9  1  0
  9 10  2  0
 10 11  1  0
 11 12  2  0
 12 13  1  0
 13 14  1  0
 13 15  2  0
  7 16  1  0
 16 17  1  0
 17 18  2  0
 18 19  1  0
 19  2  2  0
 18  6  1  0
 15  9  1  0
M  END
>  <pIC50>  (63) 
6.39

>  <ChEMBL_ID>  (63) 
CHEMBL122068

>  <document_journal>  (63) 
J. Med. Chem.

>  <bao_endpoint>  (63) 
BAO_0000190

>  <potential_duplicate>  (63) 
False

>  <uo_units>  (63) 
UO_0000065

>  <canonical_smiles>  (63) 
Nc1nc(N)c2c(Nc3cccc(Cl)c3)[nH]nc2n1

>  <parent_molecule_chembl_id>  (63) 
CHEMBL122068

>  <assay_type>  (63) 
B

>  <src_id>  (63) 
1

>  <ligand_efficiency>  (63) 
{u'le': u'0.46', u'bei': u'23.17', u'sei': u'5.39', u'lle': u'4.46'}

>  <standard_flag>  (63) 
True

>  <molecule_chembl_id>  (63) 
CHEMBL122068

>  <target_organism>  (63) 
Homo sapiens

>  <standard_units>  (63) 
nM

>  <record_id>  (63) 
228501

>  <document_chembl_id>  (63) 
CHEMBL1130217

>  <bao_format>  (63) 
BAO_0000357

>  <data_validity_description>  (63) 
None

>  <activity_id>  (63) 
1162564

>  <standard_type>  (63) 
IC50

>  <target_chembl_id>  (63) 
CHEMBL1862

>  <data_validity_comment>  (63) 
None

>  <published_value>  (63) 
0.41

>  <document_year>  (63) 
1997

>  <target_pref_name>  (63) 
Tyrosine-protein kinase ABL

>  <assay_chembl_id>  (63) 
CHEMBL847373

>  <standard_relation>  (63) 
=

>  <assay_description>  (63) 
Inhibitory activity against v-Abl tyrosine kinase

>  <published_relation>  (63) 
=

>  <standard_value>  (63) 
410

>  <qudt_units>  (63) 
http://www.openphacts.org/units/Nanomolar

>  <target_tax_id>  (63) 
9606

>  <bao_label>  (63) 
single protein format

>  <published_units>  (63) 
uM

>  <pchembl_value>  (63) 
6.39

>  <published_type>  (63) 
IC50

>  <activity_comment>  (63) 
None

$$$$

     RDKit          

 25 28  0  0  0  0  0  0  0  0999 V2000
    0.0000    0.0000    0.0000 C   0  0  0  0  0  0  0  0  0  0  0  0
    0.0000    0.0000    0.0000 O   0  0  0  0  0  0  0  0  0  0  0  0
    0.0000    0.0000    0.0000 C   0  0  0  0  0  0  0  0  0  0  0  0
    0.0000    0.0000    0.0000 C   0  0  0  0  0  0  0  0  0  0  0  0
    0.0000    0.0000    0.0000 C   0  0  0  0  0  0  0  0  0  0  0  0
    0.0000    0.0000    0.0000 C   0  0  0  0  0  0  0  0  0  0  0  0
    0.0000    0.0000    0.0000 C   0  0  0  0  0  0  0  0  0  0  0  0
    0.0000    0.0000    0.0000 C   0  0  0  0  0  0  0  0  0  0  0  0
    0.0000    0.0000    0.0000 C   0  0  0  0  0  0  0  0  0  0  0  0
    0.0000    0.0000    0.0000 N   0  0  0  0  0  0  0  0  0  0  0  0
    0.0000    0.0000    0.0000 N   0  0  0  0  0  0  0  0  0  0  0  0
    0.0000    0.0000    0.0000 C   0  0  0  0  0  0  0  0  0  0  0  0
    0.0000    0.0000    0.0000 N   0  0  0  0  0  0  0  0  0  0  0  0
    0.0000    0.0000    0.0000 C   0  0  0  0  0  0  0  0  0  0  0  0
    0.0000    0.0000    0.0000 N   0  0  0  0  0  0  0  0  0  0  0  0
    0.0000    0.0000    0.0000 C   0  0  0  0  0  0  0  0  0  0  0  0
    0.0000    0.0000    0.0000 N   0  0  0  0  0  0  0  0  0  0  0  0
    0.0000    0.0000    0.0000 C   0  0  0  0  0  0  0  0  0  0  0  0
    0.0000    0.0000    0.0000 C   0  0  0  0  0  0  0  0  0  0  0  0
    0.0000    0.0000    0.0000 C   0  0  0  0  0  0  0  0  0  0  0  0
    0.0000    0.0000    0.0000 C   0  0  0  0  0  0  0  0  0  0  0  0
    0.0000    0.0000    0.0000 C   0  0  0  0  0  0  0  0  0  0  0  0
    0.0000    0.0000    0.0000 Cl  0  0  0  0  0  0  0  0  0  0  0  0
    0.0000    0.0000    0.0000 C   0  0  0  0  0  0  0  0  0  0  0  0
    0.0000    0.0000    0.0000 C   0  0  0  0  0  0  0  0  0  0  0  0
  1  2  1  0
  2  3  1  0
  3  4  2  0
  4  5  1  0
  5  6  2  0
  6  7  1  0
  7  8  2  0
  6  9  1  0
  9 10  1  0
 10 11  1  0
 11 12  2  0
 12 13  1  0
 13 14  2  0
 14 15  1  0
 15 16  2  0
 16 17  1  0
 17 18  1  0
 18 19  2  0
 19 20  1  0
 20 21  2  0
 21 22  1  0
 22 23  1  0
 22 24  2  0
 16 25  1  0
  8  3  1  0
 25  9  2  0
 25 12  1  0
 24 18  1  0
M  END
>  <pIC50>  (64) 
4.78

>  <ChEMBL_ID>  (64) 
CHEMBL332971

>  <document_journal>  (64) 
J. Med. Chem.

>  <bao_endpoint>  (64) 
BAO_0000190

>  <potential_duplicate>  (64) 
False

>  <uo_units>  (64) 
UO_0000065

>  <canonical_smiles>  (64) 
COc1ccc(cc1)c2[nH]nc3ncnc(Nc4cccc(Cl)c4)c23

>  <parent_molecule_chembl_id>  (64) 
CHEMBL332971

>  <assay_type>  (64) 
B

>  <src_id>  (64) 
1

>  <ligand_efficiency>  (64) 
{u'le': u'0.26', u'bei': u'13.59', u'sei': u'6.32', u'lle': u'0.21'}

>  <standard_flag>  (64) 
True

>  <molecule_chembl_id>  (64) 
CHEMBL332971

>  <target_organism>  (64) 
Homo sapiens

>  <standard_units>  (64) 
nM

>  <record_id>  (64) 
228506

>  <document_chembl_id>  (64) 
CHEMBL1130217

>  <bao_format>  (64) 
BAO_0000357

>  <data_validity_description>  (64) 
None

>  <activity_id>  (64) 
1162579

>  <standard_type>  (64) 
IC50

>  <target_chembl_id>  (64) 
CHEMBL1862

>  <data_validity_comment>  (64) 
None

>  <published_value>  (64) 
16.5

>  <document_year>  (64) 
1997

>  <target_pref_name>  (64) 
Tyrosine-protein kinase ABL

>  <assay_chembl_id>  (64) 
CHEMBL847373

>  <standard_relation>  (64) 
=

>  <assay_description>  (64) 
Inhibitory activity against v-Abl tyrosine kinase

>  <published_relation>  (64) 
=

>  <standard_value>  (64) 
16500

>  <qudt_units>  (64) 
http://www.openphacts.org/units/Nanomolar

>  <target_tax_id>  (64) 
9606

>  <bao_label>  (64) 
single protein format

>  <published_units>  (64) 
uM

>  <pchembl_value>  (64) 
4.78

>  <published_type>  (64) 
IC50

>  <activity_comment>  (64) 
None

$$$$

     RDKit          

 27 30  0  0  0  0  0  0  0  0999 V2000
    0.0000    0.0000    0.0000 C   0  0  0  0  0  0  0  0  0  0  0  0
    0.0000    0.0000    0.0000 O   0  0  0  0  0  0  0  0  0  0  0  0
    0.0000    0.0000    0.0000 C   0  0  0  0  0  0  0  0  0  0  0  0
    0.0000    0.0000    0.0000 C   0  0  0  0  0  0  0  0  0  0  0  0
    0.0000    0.0000    0.0000 C   0  0  0  0  0  0  0  0  0  0  0  0
    0.0000    0.0000    0.0000 C   0  0  0  0  0  0  0  0  0  0  0  0
    0.0000    0.0000    0.0000 C   0  0  0  0  0  0  0  0  0  0  0  0
    0.0000    0.0000    0.0000 C   0  0  0  0  0  0  0  0  0  0  0  0
    0.0000    0.0000    0.0000 N   0  0  0  0  0  0  0  0  0  0  0  0
    0.0000    0.0000    0.0000 C   0  0  0  0  0  0  0  0  0  0  0  0
    0.0000    0.0000    0.0000 N   0  0  0  0  0  0  0  0  0  0  0  0
    0.0000    0.0000    0.0000 N   0  0  0  0  0  0  0  0  0  0  0  0
    0.0000    0.0000    0.0000 C   0  0  0  0  0  0  0  0  0  0  0  0
    0.0000    0.0000    0.0000 N   0  0  0  0  0  0  0  0  0  0  0  0
    0.0000    0.0000    0.0000 C   0  0  0  0  0  0  0  0  0  0  0  0
    0.0000    0.0000    0.0000 N   0  0  0  0  0  0  0  0  0  0  0  0
    0.0000    0.0000    0.0000 C   0  0  0  0  0  0  0  0  0  0  0  0
    0.0000    0.0000    0.0000 N   0  0  0  0  0  0  0  0  0  0  0  0
    0.0000    0.0000    0.0000 C   0  0  0  0  0  0  0  0  0  0  0  0
    0.0000    0.0000    0.0000 C   0  0  0  0  0  0  0  0  0  0  0  0
    0.0000    0.0000    0.0000 C   0  0  0  0  0  0  0  0  0  0  0  0
    0.0000    0.0000    0.0000 C   0  0  0  0  0  0  0  0  0  0  0  0
    0.0000    0.0000    0.0000 C   0  0  0  0  0  0  0  0  0  0  0  0
    0.0000    0.0000    0.0000 Cl  0  0  0  0  0  0  0  0  0  0  0  0
    0.0000    0.0000    0.0000 C   0  0  0  0  0  0  0  0  0  0  0  0
    0.0000    0.0000    0.0000 C   0  0  0  0  0  0  0  0  0  0  0  0
    0.0000    0.0000    0.0000 C   0  0  0  0  0  0  0  0  0  0  0  0
  1  2  1  0
  2  3  1  0
  3  4  2  0
  4  5  1  0
  5  6  2  0
  6  7  1  0
  7  8  1  0
  8  9  1  0
  9 10  1  0
 10 11  1  0
 11 12  1  0
 12 13  2  0
 13 14  1  0
 14 15  2  0
 15 16  1  0
 16 17  2  0
 17 18  1  0
 18 19  1  0
 19 20  2  0
 20 21  1  0
 21 22  2  0
 22 23  1  0
 23 24  1  0
 23 25  2  0
 17 26  1  0
  7 27  2  0
 27  3  1  0
 26 10  2  0
 26 13  1  0
 25 19  1  0
M  END
>  <pIC50>  (65) 
5.46

>  <ChEMBL_ID>  (65) 
CHEMBL123189

>  <document_journal>  (65) 
J. Med. Chem.

>  <bao_endpoint>  (65) 
BAO_0000190

>  <potential_duplicate>  (65) 
False

>  <uo_units>  (65) 
UO_0000065

>  <canonical_smiles>  (65) 
COc1cccc(CNc2[nH]nc3ncnc(Nc4cccc(Cl)c4)c23)c1

>  <parent_molecule_chembl_id>  (65) 
CHEMBL123189

>  <assay_type>  (65) 
B

>  <src_id>  (65) 
1

>  <ligand_efficiency>  (65) 
{u'le': u'0.28', u'bei': u'14.33', u'sei': u'6.22', u'lle': u'1.18'}

>  <standard_flag>  (65) 
True

>  <molecule_chembl_id>  (65) 
CHEMBL123189

>  <target_organism>  (65) 
Homo sapiens

>  <standard_units>  (65) 
nM

>  <record_id>  (65) 
228510

>  <document_chembl_id>  (65) 
CHEMBL1130217

>  <bao_format>  (65) 
BAO_0000357

>  <data_validity_description>  (65) 
None

>  <activity_id>  (65) 
1167949

>  <standard_type>  (65) 
IC50

>  <target_chembl_id>  (65) 
CHEMBL1862

>  <data_validity_comment>  (65) 
None

>  <published_value>  (65) 
3.5

>  <document_year>  (65) 
1997

>  <target_pref_name>  (65) 
Tyrosine-protein kinase ABL

>  <assay_chembl_id>  (65) 
CHEMBL847373

>  <standard_relation>  (65) 
=

>  <assay_description>  (65) 
Inhibitory activity against v-Abl tyrosine kinase

>  <published_relation>  (65) 
=

>  <standard_value>  (65) 
3500

>  <qudt_units>  (65) 
http://www.openphacts.org/units/Nanomolar

>  <target_tax_id>  (65) 
9606

>  <bao_label>  (65) 
single protein format

>  <published_units>  (65) 
uM

>  <pchembl_value>  (65) 
5.46

>  <published_type>  (65) 
IC50

>  <activity_comment>  (65) 
None

$$$$

     RDKit          

 25 28  0  0  0  0  0  0  0  0999 V2000
    0.0000    0.0000    0.0000 N   0  0  0  0  0  0  0  0  0  0  0  0
    0.0000    0.0000    0.0000 C   0  0  0  0  0  0  0  0  0  0  0  0
    0.0000    0.0000    0.0000 N   0  0  0  0  0  0  0  0  0  0  0  0
    0.0000    0.0000    0.0000 C   0  0  0  0  0  0  0  0  0  0  0  0
    0.0000    0.0000    0.0000 N   0  0  0  0  0  0  0  0  0  0  0  0
    0.0000    0.0000    0.0000 C   0  0  0  0  0  0  0  0  0  0  0  0
    0.0000    0.0000    0.0000 N   0  0  0  0  0  0  0  0  0  0  0  0
    0.0000    0.0000    0.0000 C   0  0  0  0  0  0  0  0  0  0  0  0
    0.0000    0.0000    0.0000 C   0  0  0  0  0  0  0  0  0  0  0  0
    0.0000    0.0000    0.0000 C   0  0  0  0  0  0  0  0  0  0  0  0
    0.0000    0.0000    0.0000 C   0  0  0  0  0  0  0  0  0  0  0  0
    0.0000    0.0000    0.0000 C   0  0  0  0  0  0  0  0  0  0  0  0
    0.0000    0.0000    0.0000 N   0  0  0  0  0  0  0  0  0  0  0  0
    0.0000    0.0000    0.0000 N   0  0  0  0  0  0  0  0  0  0  0  0
    0.0000    0.0000    0.0000 C   0  0  0  0  0  0  0  0  0  0  0  0
    0.0000    0.0000    0.0000 C   0  0  0  0  0  0  0  0  0  0  0  0
    0.0000    0.0000    0.0000 C   0  0  0  0  0  0  0  0  0  0  0  0
    0.0000    0.0000    0.0000 C   0  0  0  0  0  0  0  0  0  0  0  0
    0.0000    0.0000    0.0000 Cl  0  0  0  0  0  0  0  0  0  0  0  0
    0.0000    0.0000    0.0000 C   0  0  0  0  0  0  0  0  0  0  0  0
    0.0000    0.0000    0.0000 C   0  0  0  0  0  0  0  0  0  0  0  0
    0.0000    0.0000    0.0000 C   0  0  0  0  0  0  0  0  0  0  0  0
    0.0000    0.0000    0.0000 C   0  0  0  0  0  0  0  0  0  0  0  0
    0.0000    0.0000    0.0000 C   0  0  0  0  0  0  0  0  0  0  0  0
    0.0000    0.0000    0.0000 Cl  0  0  0  0  0  0  0  0  0  0  0  0
  1  2  2  0
  2  3  1  0
  4  1  1  0
  5  4  2  0
  6  5  1  0
  7  6  1  0
  8  6  2  0
  9  7  1  0
 10  8  1  0
  8  2  1  0
 11  9  2  0
  9 12  1  0
 13 10  2  0
 10 14  1  0
 15 11  1  0
 12 16  2  0
  3 13  1  0
 14 17  1  0
 18 15  2  0
 19 16  1  0
 16 18  1  0
 17 20  2  0
 21 17  1  0
 20 22  1  0
 23 21  2  0
 22 24  2  0
 24 23  1  0
 23 25  1  0
M  END
>  <pIC50>  (66) 
5.7

>  <ChEMBL_ID>  (66) 
CHEMBL333038

>  <document_journal>  (66) 
J. Med. Chem.

>  <bao_endpoint>  (66) 
BAO_0000190

>  <potential_duplicate>  (66) 
False

>  <uo_units>  (66) 
UO_0000065

>  <canonical_smiles>  (66) 
Clc1cccc(Nc2nc[nH]c3nnc(Nc4cccc(Cl)c4)c23)c1

>  <parent_molecule_chembl_id>  (66) 
CHEMBL333038

>  <assay_type>  (66) 
B

>  <src_id>  (66) 
1

>  <ligand_efficiency>  (66) 
{u'le': u'0.31', u'bei': u'15.36', u'sei': u'7.26', u'lle': u'0.69'}

>  <standard_flag>  (66) 
True

>  <molecule_chembl_id>  (66) 
CHEMBL333038

>  <target_organism>  (66) 
Homo sapiens

>  <standard_units>  (66) 
nM

>  <record_id>  (66) 
228531

>  <document_chembl_id>  (66) 
CHEMBL1130217

>  <bao_format>  (66) 
BAO_0000357

>  <data_validity_description>  (66) 
None

>  <activity_id>  (66) 
1171616

>  <standard_type>  (66) 
IC50

>  <target_chembl_id>  (66) 
CHEMBL1862

>  <data_validity_comment>  (66) 
None

>  <published_value>  (66) 
1.98

>  <document_year>  (66) 
1997

>  <target_pref_name>  (66) 
Tyrosine-protein kinase ABL

>  <assay_chembl_id>  (66) 
CHEMBL847373

>  <standard_relation>  (66) 
=

>  <assay_description>  (66) 
Inhibitory activity against v-Abl tyrosine kinase

>  <published_relation>  (66) 
=

>  <standard_value>  (66) 
1980

>  <qudt_units>  (66) 
http://www.openphacts.org/units/Nanomolar

>  <target_tax_id>  (66) 
9606

>  <bao_label>  (66) 
single protein format

>  <published_units>  (66) 
uM

>  <pchembl_value>  (66) 
5.7

>  <published_type>  (66) 
IC50

>  <activity_comment>  (66) 
None

$$$$

     RDKit          

 25 28  0  0  0  0  0  0  0  0999 V2000
    0.0000    0.0000    0.0000 Cl  0  0  0  0  0  0  0  0  0  0  0  0
    0.0000    0.0000    0.0000 C   0  0  0  0  0  0  0  0  0  0  0  0
    0.0000    0.0000    0.0000 C   0  0  0  0  0  0  0  0  0  0  0  0
    0.0000    0.0000    0.0000 C   0  0  0  0  0  0  0  0  0  0  0  0
    0.0000    0.0000    0.0000 C   0  0  0  0  0  0  0  0  0  0  0  0
    0.0000    0.0000    0.0000 C   0  0  0  0  0  0  0  0  0  0  0  0
    0.0000    0.0000    0.0000 N   0  0  0  0  0  0  0  0  0  0  0  0
    0.0000    0.0000    0.0000 C   0  0  0  0  0  0  0  0  0  0  0  0
    0.0000    0.0000    0.0000 N   0  0  0  0  0  0  0  0  0  0  0  0
    0.0000    0.0000    0.0000 N   0  0  0  0  0  0  0  0  0  0  0  0
    0.0000    0.0000    0.0000 C   0  0  0  0  0  0  0  0  0  0  0  0
    0.0000    0.0000    0.0000 N   0  0  0  0  0  0  0  0  0  0  0  0
    0.0000    0.0000    0.0000 C   0  0  0  0  0  0  0  0  0  0  0  0
    0.0000    0.0000    0.0000 N   0  0  0  0  0  0  0  0  0  0  0  0
    0.0000    0.0000    0.0000 C   0  0  0  0  0  0  0  0  0  0  0  0
    0.0000    0.0000    0.0000 N   0  0  0  0  0  0  0  0  0  0  0  0
    0.0000    0.0000    0.0000 C   0  0  0  0  0  0  0  0  0  0  0  0
    0.0000    0.0000    0.0000 C   0  0  0  0  0  0  0  0  0  0  0  0
    0.0000    0.0000    0.0000 C   0  0  0  0  0  0  0  0  0  0  0  0
    0.0000    0.0000    0.0000 C   0  0  0  0  0  0  0  0  0  0  0  0
    0.0000    0.0000    0.0000 C   0  0  0  0  0  0  0  0  0  0  0  0
    0.0000    0.0000    0.0000 Br  0  0  0  0  0  0  0  0  0  0  0  0
    0.0000    0.0000    0.0000 C   0  0  0  0  0  0  0  0  0  0  0  0
    0.0000    0.0000    0.0000 C   0  0  0  0  0  0  0  0  0  0  0  0
    0.0000    0.0000    0.0000 C   0  0  0  0  0  0  0  0  0  0  0  0
  1  2  1  0
  2  3  2  0
  3  4  1  0
  4  5  2  0
  5  6  1  0
  6  7  1  0
  7  8  1  0
  8  9  1  0
  9 10  1  0
 10 11  2  0
 11 12  1  0
 12 13  2  0
 13 14  1  0
 14 15  2  0
 15 16  1  0
 16 17  1  0
 17 18  2  0
 18 19  1  0
 19 20  2  0
 20 21  1  0
 21 22  1  0
 21 23  2  0
 15 24  1  0
  6 25  2  0
 25  2  1  0
 24  8  2  0
 24 11  1  0
 23 17  1  0
M  END
>  <pIC50>  (67) 
5.87

>  <ChEMBL_ID>  (67) 
CHEMBL120319

>  <document_journal>  (67) 
J. Med. Chem.

>  <bao_endpoint>  (67) 
BAO_0000190

>  <potential_duplicate>  (67) 
False

>  <uo_units>  (67) 
UO_0000065

>  <canonical_smiles>  (67) 
Clc1cccc(Nc2[nH]nc3ncnc(Nc4cccc(Br)c4)c23)c1

>  <parent_molecule_chembl_id>  (67) 
CHEMBL120319

>  <assay_type>  (67) 
B

>  <src_id>  (67) 
1

>  <ligand_efficiency>  (67) 
{u'le': u'0.32', u'bei': u'14.11', u'sei': u'7.47', u'lle': u'0.67'}

>  <standard_flag>  (67) 
True

>  <molecule_chembl_id>  (67) 
CHEMBL120319

>  <target_organism>  (67) 
Homo sapiens

>  <standard_units>  (67) 
nM

>  <record_id>  (67) 
228530

>  <document_chembl_id>  (67) 
CHEMBL1130217

>  <bao_format>  (67) 
BAO_0000357

>  <data_validity_description>  (67) 
None

>  <activity_id>  (67) 
1173027

>  <standard_type>  (67) 
IC50

>  <target_chembl_id>  (67) 
CHEMBL1862

>  <data_validity_comment>  (67) 
None

>  <published_value>  (67) 
1.36

>  <document_year>  (67) 
1997

>  <target_pref_name>  (67) 
Tyrosine-protein kinase ABL

>  <assay_chembl_id>  (67) 
CHEMBL847373

>  <standard_relation>  (67) 
=

>  <assay_description>  (67) 
Inhibitory activity against v-Abl tyrosine kinase

>  <published_relation>  (67) 
=

>  <standard_value>  (67) 
1360

>  <qudt_units>  (67) 
http://www.openphacts.org/units/Nanomolar

>  <target_tax_id>  (67) 
9606

>  <bao_label>  (67) 
single protein format

>  <published_units>  (67) 
uM

>  <pchembl_value>  (67) 
5.87

>  <published_type>  (67) 
IC50

>  <activity_comment>  (67) 
None

$$$$

     RDKit          

 24 27  0  0  0  0  0  0  0  0999 V2000
    0.0000    0.0000    0.0000 Cl  0  0  0  0  0  0  0  0  0  0  0  0
    0.0000    0.0000    0.0000 C   0  0  0  0  0  0  0  0  0  0  0  0
    0.0000    0.0000    0.0000 C   0  0  0  0  0  0  0  0  0  0  0  0
    0.0000    0.0000    0.0000 C   0  0  0  0  0  0  0  0  0  0  0  0
    0.0000    0.0000    0.0000 C   0  0  0  0  0  0  0  0  0  0  0  0
    0.0000    0.0000    0.0000 C   0  0  0  0  0  0  0  0  0  0  0  0
    0.0000    0.0000    0.0000 N   0  0  0  0  0  0  0  0  0  0  0  0
    0.0000    0.0000    0.0000 C   0  0  0  0  0  0  0  0  0  0  0  0
    0.0000    0.0000    0.0000 N   0  0  0  0  0  0  0  0  0  0  0  0
    0.0000    0.0000    0.0000 N   0  0  0  0  0  0  0  0  0  0  0  0
    0.0000    0.0000    0.0000 C   0  0  0  0  0  0  0  0  0  0  0  0
    0.0000    0.0000    0.0000 N   0  0  0  0  0  0  0  0  0  0  0  0
    0.0000    0.0000    0.0000 C   0  0  0  0  0  0  0  0  0  0  0  0
    0.0000    0.0000    0.0000 N   0  0  0  0  0  0  0  0  0  0  0  0
    0.0000    0.0000    0.0000 C   0  0  0  0  0  0  0  0  0  0  0  0
    0.0000    0.0000    0.0000 N   0  0  0  0  0  0  0  0  0  0  0  0
    0.0000    0.0000    0.0000 C   0  0  0  0  0  0  0  0  0  0  0  0
    0.0000    0.0000    0.0000 C   0  0  0  0  0  0  0  0  0  0  0  0
    0.0000    0.0000    0.0000 C   0  0  0  0  0  0  0  0  0  0  0  0
    0.0000    0.0000    0.0000 C   0  0  0  0  0  0  0  0  0  0  0  0
    0.0000    0.0000    0.0000 C   0  0  0  0  0  0  0  0  0  0  0  0
    0.0000    0.0000    0.0000 C   0  0  0  0  0  0  0  0  0  0  0  0
    0.0000    0.0000    0.0000 C   0  0  0  0  0  0  0  0  0  0  0  0
    0.0000    0.0000    0.0000 C   0  0  0  0  0  0  0  0  0  0  0  0
  1  2  1  0
  2  3  2  0
  3  4  1  0
  4  5  2  0
  5  6  1  0
  6  7  1  0
  7  8  1  0
  8  9  1  0
  9 10  1  0
 10 11  2  0
 11 12  1  0
 12 13  2  0
 13 14  1  0
 14 15  2  0
 15 16  1  0
 16 17  1  0
 17 18  2  0
 18 19  1  0
 19 20  2  0
 20 21  1  0
 21 22  2  0
 15 23  1  0
  6 24  2  0
 24  2  1  0
 23  8  2  0
 23 11  1  0
 22 17  1  0
M  END
>  <pIC50>  (68) 
5.87

>  <ChEMBL_ID>  (68) 
CHEMBL121260

>  <document_journal>  (68) 
J. Med. Chem.

>  <bao_endpoint>  (68) 
BAO_0000190

>  <potential_duplicate>  (68) 
False

>  <uo_units>  (68) 
UO_0000065

>  <canonical_smiles>  (68) 
Clc1cccc(Nc2[nH]nc3ncnc(Nc4ccccc4)c23)c1

>  <parent_molecule_chembl_id>  (68) 
CHEMBL121260

>  <assay_type>  (68) 
B

>  <src_id>  (68) 
1

>  <ligand_efficiency>  (68) 
{u'le': u'0.33', u'bei': u'17.42', u'sei': u'7.47', u'lle': u'1.41'}

>  <standard_flag>  (68) 
True

>  <molecule_chembl_id>  (68) 
CHEMBL121260

>  <target_organism>  (68) 
Homo sapiens

>  <standard_units>  (68) 
nM

>  <record_id>  (68) 
228505

>  <document_chembl_id>  (68) 
CHEMBL1130217

>  <bao_format>  (68) 
BAO_0000357

>  <data_validity_description>  (68) 
None

>  <activity_id>  (68) 
1174285

>  <standard_type>  (68) 
IC50

>  <target_chembl_id>  (68) 
CHEMBL1862

>  <data_validity_comment>  (68) 
None

>  <published_value>  (68) 
1.36

>  <document_year>  (68) 
1997

>  <target_pref_name>  (68) 
Tyrosine-protein kinase ABL

>  <assay_chembl_id>  (68) 
CHEMBL847373

>  <standard_relation>  (68) 
=

>  <assay_description>  (68) 
Inhibitory activity against v-Abl tyrosine kinase

>  <published_relation>  (68) 
=

>  <standard_value>  (68) 
1360

>  <qudt_units>  (68) 
http://www.openphacts.org/units/Nanomolar

>  <target_tax_id>  (68) 
9606

>  <bao_label>  (68) 
single protein format

>  <published_units>  (68) 
uM

>  <pchembl_value>  (68) 
5.87

>  <published_type>  (68) 
IC50

>  <activity_comment>  (68) 
None

$$$$

     RDKit          

 25 28  0  0  0  0  0  0  0  0999 V2000
    0.0000    0.0000    0.0000 O   0  0  0  0  0  0  0  0  0  0  0  0
    0.0000    0.0000    0.0000 C   0  0  0  0  0  0  0  0  0  0  0  0
    0.0000    0.0000    0.0000 C   0  0  0  0  0  0  0  0  0  0  0  0
    0.0000    0.0000    0.0000 C   0  0  0  0  0  0  0  0  0  0  0  0
    0.0000    0.0000    0.0000 C   0  0  0  0  0  0  0  0  0  0  0  0
    0.0000    0.0000    0.0000 C   0  0  0  0  0  0  0  0  0  0  0  0
    0.0000    0.0000    0.0000 N   0  0  0  0  0  0  0  0  0  0  0  0
    0.0000    0.0000    0.0000 C   0  0  0  0  0  0  0  0  0  0  0  0
    0.0000    0.0000    0.0000 N   0  0  0  0  0  0  0  0  0  0  0  0
    0.0000    0.0000    0.0000 N   0  0  0  0  0  0  0  0  0  0  0  0
    0.0000    0.0000    0.0000 C   0  0  0  0  0  0  0  0  0  0  0  0
    0.0000    0.0000    0.0000 N   0  0  0  0  0  0  0  0  0  0  0  0
    0.0000    0.0000    0.0000 C   0  0  0  0  0  0  0  0  0  0  0  0
    0.0000    0.0000    0.0000 N   0  0  0  0  0  0  0  0  0  0  0  0
    0.0000    0.0000    0.0000 C   0  0  0  0  0  0  0  0  0  0  0  0
    0.0000    0.0000    0.0000 N   0  0  0  0  0  0  0  0  0  0  0  0
    0.0000    0.0000    0.0000 C   0  0  0  0  0  0  0  0  0  0  0  0
    0.0000    0.0000    0.0000 C   0  0  0  0  0  0  0  0  0  0  0  0
    0.0000    0.0000    0.0000 C   0  0  0  0  0  0  0  0  0  0  0  0
    0.0000    0.0000    0.0000 C   0  0  0  0  0  0  0  0  0  0  0  0
    0.0000    0.0000    0.0000 C   0  0  0  0  0  0  0  0  0  0  0  0
    0.0000    0.0000    0.0000 Cl  0  0  0  0  0  0  0  0  0  0  0  0
    0.0000    0.0000    0.0000 C   0  0  0  0  0  0  0  0  0  0  0  0
    0.0000    0.0000    0.0000 C   0  0  0  0  0  0  0  0  0  0  0  0
    0.0000    0.0000    0.0000 C   0  0  0  0  0  0  0  0  0  0  0  0
  1  2  1  0
  2  3  2  0
  3  4  1  0
  4  5  2  0
  5  6  1  0
  6  7  1  0
  7  8  1  0
  8  9  1  0
  9 10  1  0
 10 11  2  0
 11 12  1  0
 12 13  2  0
 13 14  1  0
 14 15  2  0
 15 16  1  0
 16 17  1  0
 17 18  2  0
 18 19  1  0
 19 20  2  0
 20 21  1  0
 21 22  1  0
 21 23  2  0
 15 24  1  0
  6 25  2  0
 25  2  1  0
 24  8  2  0
 24 11  1  0
 23 17  1  0
M  END
>  <pIC50>  (69) 
6.59

>  <ChEMBL_ID>  (69) 
CHEMBL121954

>  <document_journal>  (69) 
J. Med. Chem.

>  <bao_endpoint>  (69) 
BAO_0000190

>  <potential_duplicate>  (69) 
False

>  <uo_units>  (69) 
UO_0000065

>  <canonical_smiles>  (69) 
Oc1cccc(Nc2[nH]nc3ncnc(Nc4cccc(Cl)c4)c23)c1

>  <parent_molecule_chembl_id>  (69) 
CHEMBL121954

>  <assay_type>  (69) 
B

>  <src_id>  (69) 
1

>  <ligand_efficiency>  (69) 
{u'le': u'0.36', u'bei': u'18.67', u'sei': u'6.67', u'lle': u'2.38'}

>  <standard_flag>  (69) 
True

>  <molecule_chembl_id>  (69) 
CHEMBL121954

>  <target_organism>  (69) 
Homo sapiens

>  <standard_units>  (69) 
nM

>  <record_id>  (69) 
228525

>  <document_chembl_id>  (69) 
CHEMBL1130217

>  <bao_format>  (69) 
BAO_0000357

>  <data_validity_description>  (69) 
None

>  <activity_id>  (69) 
1174292

>  <standard_type>  (69) 
IC50

>  <target_chembl_id>  (69) 
CHEMBL1862

>  <data_validity_comment>  (69) 
None

>  <published_value>  (69) 
0.26

>  <document_year>  (69) 
1997

>  <target_pref_name>  (69) 
Tyrosine-protein kinase ABL

>  <assay_chembl_id>  (69) 
CHEMBL847373

>  <standard_relation>  (69) 
=

>  <assay_description>  (69) 
Inhibitory activity against v-Abl tyrosine kinase

>  <published_relation>  (69) 
=

>  <standard_value>  (69) 
260

>  <qudt_units>  (69) 
http://www.openphacts.org/units/Nanomolar

>  <target_tax_id>  (69) 
9606

>  <bao_label>  (69) 
single protein format

>  <published_units>  (69) 
uM

>  <pchembl_value>  (69) 
6.59

>  <published_type>  (69) 
IC50

>  <activity_comment>  (69) 
None

$$$$

     RDKit          

 30 33  0  0  0  0  0  0  0  0999 V2000
    0.0000    0.0000    0.0000 C   0  0  0  0  0  0  0  0  0  0  0  0
    0.0000    0.0000    0.0000 O   0  0  0  0  0  0  0  0  0  0  0  0
    0.0000    0.0000    0.0000 C   0  0  0  0  0  0  0  0  0  0  0  0
    0.0000    0.0000    0.0000 C   0  0  0  0  0  0  0  0  0  0  0  0
    0.0000    0.0000    0.0000 C   0  0  0  0  0  0  0  0  0  0  0  0
    0.0000    0.0000    0.0000 C   0  0  0  0  0  0  0  0  0  0  0  0
    0.0000    0.0000    0.0000 N   0  0  0  0  0  0  0  0  0  0  0  0
    0.0000    0.0000    0.0000 C   0  0  0  0  0  0  0  0  0  0  0  0
    0.0000    0.0000    0.0000 C   0  0  0  0  0  0  0  0  0  0  0  0
    0.0000    0.0000    0.0000 C   0  0  0  0  0  0  0  0  0  0  0  0
    0.0000    0.0000    0.0000 C   0  0  0  0  0  0  0  0  0  0  0  0
    0.0000    0.0000    0.0000 Br  0  0  0  0  0  0  0  0  0  0  0  0
    0.0000    0.0000    0.0000 C   0  0  0  0  0  0  0  0  0  0  0  0
    0.0000    0.0000    0.0000 C   0  0  0  0  0  0  0  0  0  0  0  0
    0.0000    0.0000    0.0000 F   0  0  0  0  0  0  0  0  0  0  0  0
    0.0000    0.0000    0.0000 N   0  0  0  0  0  0  0  0  0  0  0  0
    0.0000    0.0000    0.0000 C   0  0  0  0  0  0  0  0  0  0  0  0
    0.0000    0.0000    0.0000 N   0  0  0  0  0  0  0  0  0  0  0  0
    0.0000    0.0000    0.0000 C   0  0  0  0  0  0  0  0  0  0  0  0
    0.0000    0.0000    0.0000 C   0  0  0  0  0  0  0  0  0  0  0  0
    0.0000    0.0000    0.0000 C   0  0  0  0  0  0  0  0  0  0  0  0
    0.0000    0.0000    0.0000 O   0  0  0  0  0  0  0  0  0  0  0  0
    0.0000    0.0000    0.0000 C   0  0  0  0  0  0  0  0  0  0  0  0
    0.0000    0.0000    0.0000 C   0  0  0  0  0  0  0  0  0  0  0  0
    0.0000    0.0000    0.0000 C   0  0  0  0  0  0  0  0  0  0  0  0
    0.0000    0.0000    0.0000 C   0  0  0  0  0  0  0  0  0  0  0  0
    0.0000    0.0000    0.0000 N   0  0  0  0  0  0  0  0  0  0  0  0
    0.0000    0.0000    0.0000 C   0  0  0  0  0  0  0  0  0  0  0  0
    0.0000    0.0000    0.0000 C   0  0  0  0  0  0  0  0  0  0  0  0
    0.0000    0.0000    0.0000 C   0  0  0  0  0  0  0  0  0  0  0  0
  1  2  1  0
  2  3  1  0
  3  4  2  0
  4  5  1  0
  5  6  2  0
  6  7  1  0
  7  8  1  0
  8  9  2  0
  9 10  1  0
 10 11  2  0
 11 12  1  0
 11 13  1  0
 13 14  2  0
 14 15  1  0
  6 16  1  0
 16 17  2  0
 17 18  1  0
 18 19  2  0
 19 20  1  0
 20 21  2  0
 21 22  1  0
 22 23  1  0
 23 24  1  0
 24 25  1  0
 25 26  1  0
 26 27  1  0
 27 28  1  0
 27 29  1  0
 29 30  1  0
 21  3  1  0
 19  5  1  0
 14  8  1  0
 30 24  1  0
M  END
>  <pIC50>  (70) 
6.945

>  <ChEMBL_ID>  (70) 
CHEMBL24828

>  <document_journal>  (70) 
J. Med. Chem.

>  <bao_endpoint>  (70) 
BAO_0000190

>  <potential_duplicate>  (70) 
False

>  <uo_units>  (70) 
UO_0000065

>  <canonical_smiles>  (70) 
COc1cc2c(Nc3ccc(Br)cc3F)ncnc2cc1OCC4CCN(C)CC4

>  <parent_molecule_chembl_id>  (70) 
CHEMBL24828

>  <assay_type>  (70) 
B

>  <src_id>  (70) 
1

>  <ligand_efficiency>  (70) 
{u'le': u'0.32', u'bei': u'14.86', u'sei': u'11.87', u'lle': u'1.98'}

>  <standard_flag>  (70) 
True

>  <molecule_chembl_id>  (70) 
CHEMBL24828

>  <target_organism>  (70) 
Homo sapiens

>  <standard_units>  (70) 
nM

>  <record_id>  (70) 
300009

>  <document_chembl_id>  (70) 
CHEMBL1135689

>  <bao_format>  (70) 
BAO_0000019

>  <data_validity_description>  (70) 
None

>  <activity_id>  (70) 
1175329

>  <standard_type>  (70) 
IC50

>  <target_chembl_id>  (70) 
CHEMBL1862

>  <data_validity_comment>  (70) 
None

>  <published_value>  (70) 
86

>  <document_year>  (70) 
2002

>  <target_pref_name>  (70) 
Tyrosine-protein kinase ABL

>  <assay_chembl_id>  (70) 
CHEMBL819334

>  <standard_relation>  (70) 
=

>  <assay_description>  (70) 
In vitro inhibition of c-Abl tyrosine kinase expressed in baculovirus

>  <published_relation>  (70) 
=

>  <standard_value>  (70) 
86

>  <qudt_units>  (70) 
http://www.openphacts.org/units/Nanomolar

>  <target_tax_id>  (70) 
9606

>  <bao_label>  (70) 
assay format

>  <published_units>  (70) 
nM

>  <pchembl_value>  (70) 
7.07

>  <published_type>  (70) 
IC50

>  <activity_comment>  (70) 
None

$$$$

     RDKit          

 22 24  0  0  0  0  0  0  0  0999 V2000
    0.0000    0.0000    0.0000 C   0  0  0  0  0  0  0  0  0  0  0  0
    0.0000    0.0000    0.0000 O   0  0  0  0  0  0  0  0  0  0  0  0
    0.0000    0.0000    0.0000 C   0  0  0  0  0  0  0  0  0  0  0  0
    0.0000    0.0000    0.0000 C   0  0  0  0  0  0  0  0  0  0  0  0
    0.0000    0.0000    0.0000 C   0  0  0  0  0  0  0  0  0  0  0  0
    0.0000    0.0000    0.0000 N   0  0  0  0  0  0  0  0  0  0  0  0
    0.0000    0.0000    0.0000 C   0  0  0  0  0  0  0  0  0  0  0  0
    0.0000    0.0000    0.0000 N   0  0  0  0  0  0  0  0  0  0  0  0
    0.0000    0.0000    0.0000 C   0  0  0  0  0  0  0  0  0  0  0  0
    0.0000    0.0000    0.0000 N   0  0  0  0  0  0  0  0  0  0  0  0
    0.0000    0.0000    0.0000 C   0  0  0  0  0  0  0  0  0  0  0  0
    0.0000    0.0000    0.0000 C   0  0  0  0  0  0  0  0  0  0  0  0
    0.0000    0.0000    0.0000 C   0  0  0  0  0  0  0  0  0  0  0  0
    0.0000    0.0000    0.0000 C   0  0  0  0  0  0  0  0  0  0  0  0
    0.0000    0.0000    0.0000 C   0  0  0  0  0  0  0  0  0  0  0  0
    0.0000    0.0000    0.0000 Br  0  0  0  0  0  0  0  0  0  0  0  0
    0.0000    0.0000    0.0000 C   0  0  0  0  0  0  0  0  0  0  0  0
    0.0000    0.0000    0.0000 C   0  0  0  0  0  0  0  0  0  0  0  0
    0.0000    0.0000    0.0000 C   0  0  0  0  0  0  0  0  0  0  0  0
    0.0000    0.0000    0.0000 C   0  0  0  0  0  0  0  0  0  0  0  0
    0.0000    0.0000    0.0000 O   0  0  0  0  0  0  0  0  0  0  0  0
    0.0000    0.0000    0.0000 C   0  0  0  0  0  0  0  0  0  0  0  0
  1  2  1  0
  2  3  1  0
  3  4  2  0
  4  5  1  0
  5  6  2  0
  6  7  1  0
  7  8  2  0
  8  9  1  0
  9 10  1  0
 10 11  1  0
 11 12  2  0
 12 13  1  0
 13 14  2  0
 14 15  1  0
 15 16  1  0
 15 17  2  0
  9 18  2  0
 18 19  1  0
 19 20  2  0
 20 21  1  0
 21 22  1  0
 20  3  1  0
 18  5  1  0
 17 11  1  0
M  END
>  <pIC50>  (71) 
7.52

>  <ChEMBL_ID>  (71) 
CHEMBL29197

>  <document_journal>  (71) 
J. Med. Chem.

>  <bao_endpoint>  (71) 
BAO_0000190

>  <potential_duplicate>  (71) 
False

>  <uo_units>  (71) 
UO_0000065

>  <canonical_smiles>  (71) 
COc1cc2ncnc(Nc3cccc(Br)c3)c2cc1OC

>  <parent_molecule_chembl_id>  (71) 
CHEMBL29197

>  <assay_type>  (71) 
B

>  <src_id>  (71) 
1

>  <ligand_efficiency>  (71) 
{u'le': u'0.47', u'bei': u'20.88', u'sei': u'13.37', u'lle': u'3.33'}

>  <standard_flag>  (71) 
True

>  <molecule_chembl_id>  (71) 
CHEMBL29197

>  <target_organism>  (71) 
Homo sapiens

>  <standard_units>  (71) 
nM

>  <record_id>  (71) 
228532

>  <document_chembl_id>  (71) 
CHEMBL1130217

>  <bao_format>  (71) 
BAO_0000357

>  <data_validity_description>  (71) 
None

>  <activity_id>  (71) 
1179483

>  <standard_type>  (71) 
IC50

>  <target_chembl_id>  (71) 
CHEMBL1862

>  <data_validity_comment>  (71) 
None

>  <published_value>  (71) 
0.03

>  <document_year>  (71) 
1997

>  <target_pref_name>  (71) 
Tyrosine-protein kinase ABL

>  <assay_chembl_id>  (71) 
CHEMBL847373

>  <standard_relation>  (71) 
=

>  <assay_description>  (71) 
Inhibitory activity against v-Abl tyrosine kinase

>  <published_relation>  (71) 
=

>  <standard_value>  (71) 
30

>  <qudt_units>  (71) 
http://www.openphacts.org/units/Nanomolar

>  <target_tax_id>  (71) 
9606

>  <bao_label>  (71) 
single protein format

>  <published_units>  (71) 
uM

>  <pchembl_value>  (71) 
7.52

>  <published_type>  (71) 
IC50

>  <activity_comment>  (71) 
None

$$$$

     RDKit          

 25 28  0  0  0  0  0  0  0  0999 V2000
    0.0000    0.0000    0.0000 O   0  0  0  0  0  0  0  0  0  0  0  0
    0.0000    0.0000    0.0000 C   0  0  0  0  0  0  0  0  0  0  0  0
    0.0000    0.0000    0.0000 C   0  0  0  0  0  0  0  0  0  0  0  0
    0.0000    0.0000    0.0000 C   0  0  0  0  0  0  0  0  0  0  0  0
    0.0000    0.0000    0.0000 C   0  0  0  0  0  0  0  0  0  0  0  0
    0.0000    0.0000    0.0000 N   0  0  0  0  0  0  0  0  0  0  0  0
    0.0000    0.0000    0.0000 C   0  0  0  0  0  0  0  0  0  0  0  0
    0.0000    0.0000    0.0000 N   0  0  0  0  0  0  0  0  0  0  0  0
    0.0000    0.0000    0.0000 N   0  0  0  0  0  0  0  0  0  0  0  0
    0.0000    0.0000    0.0000 C   0  0  0  0  0  0  0  0  0  0  0  0
    0.0000    0.0000    0.0000 N   0  0  0  0  0  0  0  0  0  0  0  0
    0.0000    0.0000    0.0000 C   0  0  0  0  0  0  0  0  0  0  0  0
    0.0000    0.0000    0.0000 N   0  0  0  0  0  0  0  0  0  0  0  0
    0.0000    0.0000    0.0000 C   0  0  0  0  0  0  0  0  0  0  0  0
    0.0000    0.0000    0.0000 N   0  0  0  0  0  0  0  0  0  0  0  0
    0.0000    0.0000    0.0000 C   0  0  0  0  0  0  0  0  0  0  0  0
    0.0000    0.0000    0.0000 C   0  0  0  0  0  0  0  0  0  0  0  0
    0.0000    0.0000    0.0000 C   0  0  0  0  0  0  0  0  0  0  0  0
    0.0000    0.0000    0.0000 C   0  0  0  0  0  0  0  0  0  0  0  0
    0.0000    0.0000    0.0000 C   0  0  0  0  0  0  0  0  0  0  0  0
    0.0000    0.0000    0.0000 Cl  0  0  0  0  0  0  0  0  0  0  0  0
    0.0000    0.0000    0.0000 C   0  0  0  0  0  0  0  0  0  0  0  0
    0.0000    0.0000    0.0000 C   0  0  0  0  0  0  0  0  0  0  0  0
    0.0000    0.0000    0.0000 C   0  0  0  0  0  0  0  0  0  0  0  0
    0.0000    0.0000    0.0000 C   0  0  0  0  0  0  0  0  0  0  0  0
  1  2  1  0
  2  3  2  0
  3  4  1  0
  4  5  2  0
  5  6  1  0
  6  7  1  0
  7  8  1  0
  8  9  1  0
  9 10  2  0
 10 11  1  0
 11 12  2  0
 12 13  1  0
 13 14  2  0
 14 15  1  0
 15 16  1  0
 16 17  2  0
 17 18  1  0
 18 19  2  0
 19 20  1  0
 20 21  1  0
 20 22  2  0
 14 23  1  0
  5 24  1  0
 24 25  2  0
 25  2  1  0
 23  7  2  0
 23 10  1  0
 22 16  1  0
M  END
>  <pIC50>  (72) 
6.82

>  <ChEMBL_ID>  (72) 
CHEMBL122182

>  <document_journal>  (72) 
J. Med. Chem.

>  <bao_endpoint>  (72) 
BAO_0000190

>  <potential_duplicate>  (72) 
False

>  <uo_units>  (72) 
UO_0000065

>  <canonical_smiles>  (72) 
Oc1ccc(Nc2[nH]nc3ncnc(Nc4cccc(Cl)c4)c23)cc1

>  <parent_molecule_chembl_id>  (72) 
CHEMBL122182

>  <assay_type>  (72) 
B

>  <src_id>  (72) 
1

>  <ligand_efficiency>  (72) 
{u'le': u'0.37', u'bei': u'19.34', u'sei': u'6.91', u'lle': u'2.61'}

>  <standard_flag>  (72) 
True

>  <molecule_chembl_id>  (72) 
CHEMBL122182

>  <target_organism>  (72) 
Homo sapiens

>  <standard_units>  (72) 
nM

>  <record_id>  (72) 
228527

>  <document_chembl_id>  (72) 
CHEMBL1130217

>  <bao_format>  (72) 
BAO_0000357

>  <data_validity_description>  (72) 
None

>  <activity_id>  (72) 
1182243

>  <standard_type>  (72) 
IC50

>  <target_chembl_id>  (72) 
CHEMBL1862

>  <data_validity_comment>  (72) 
None

>  <published_value>  (72) 
0.15

>  <document_year>  (72) 
1997

>  <target_pref_name>  (72) 
Tyrosine-protein kinase ABL

>  <assay_chembl_id>  (72) 
CHEMBL847373

>  <standard_relation>  (72) 
=

>  <assay_description>  (72) 
Inhibitory activity against v-Abl tyrosine kinase

>  <published_relation>  (72) 
=

>  <standard_value>  (72) 
150

>  <qudt_units>  (72) 
http://www.openphacts.org/units/Nanomolar

>  <target_tax_id>  (72) 
9606

>  <bao_label>  (72) 
single protein format

>  <published_units>  (72) 
uM

>  <pchembl_value>  (72) 
6.82

>  <published_type>  (72) 
IC50

>  <activity_comment>  (72) 
None

$$$$

     RDKit          

 33 37  0  0  0  0  0  0  0  0999 V2000
    0.0000    0.0000    0.0000 O   0  0  0  0  0  0  0  0  0  0  0  0
    0.0000    0.0000    0.0000 C   0  0  0  0  0  0  0  0  0  0  0  0
    0.0000    0.0000    0.0000 N   0  0  0  0  0  0  0  0  0  0  0  0
    0.0000    0.0000    0.0000 C   0  0  0  0  0  0  0  0  0  0  0  0
    0.0000    0.0000    0.0000 C   0  0  0  0  0  0  0  0  0  0  0  0
    0.0000    0.0000    0.0000 C   0  0  0  0  0  0  0  0  0  0  0  0
    0.0000    0.0000    0.0000 C   0  0  0  0  0  0  0  0  0  0  0  0
    0.0000    0.0000    0.0000 C   0  0  0  0  0  0  0  0  0  0  0  0
    0.0000    0.0000    0.0000 C   0  0  0  0  0  0  0  0  0  0  0  0
    0.0000    0.0000    0.0000 C   0  0  0  0  0  0  0  0  0  0  0  0
    0.0000    0.0000    0.0000 C   0  0  0  0  0  0  0  0  0  0  0  0
    0.0000    0.0000    0.0000 N   0  0  0  0  0  0  0  0  0  0  0  0
    0.0000    0.0000    0.0000 C   0  0  0  0  0  0  0  0  0  0  0  0
    0.0000    0.0000    0.0000 C   0  0  0  0  0  0  0  0  0  0  0  0
    0.0000    0.0000    0.0000 C   0  0  0  0  0  0  0  0  0  0  0  0
    0.0000    0.0000    0.0000 C   0  0  0  0  0  0  0  0  0  0  0  0
    0.0000    0.0000    0.0000 C   0  0  0  0  0  0  0  0  0  0  0  0
    0.0000    0.0000    0.0000 C   0  0  0  0  0  0  0  0  0  0  0  0
    0.0000    0.0000    0.0000 C   0  0  0  0  0  0  0  0  0  0  0  0
    0.0000    0.0000    0.0000 C   0  0  0  0  0  0  0  0  0  0  0  0
    0.0000    0.0000    0.0000 C   0  0  0  0  0  0  0  0  0  0  0  0
    0.0000    0.0000    0.0000 C   0  0  0  0  0  0  0  0  0  0  0  0
    0.0000    0.0000    0.0000 C   0  0  0  0  0  0  0  0  0  0  0  0
    0.0000    0.0000    0.0000 C   0  0  0  0  0  0  0  0  0  0  0  0
    0.0000    0.0000    0.0000 C   0  0  0  0  0  0  0  0  0  0  0  0
    0.0000    0.0000    0.0000 N   0  0  0  0  0  0  0  0  0  0  0  0
    0.0000    0.0000    0.0000 C   0  0  0  0  0  0  0  0  0  0  0  0
    0.0000    0.0000    0.0000 C   0  0  0  0  0  0  0  0  0  0  0  0
    0.0000    0.0000    0.0000 C   0  0  0  0  0  0  0  0  0  0  0  0
    0.0000    0.0000    0.0000 C   0  0  0  0  0  0  0  0  0  0  0  0
    0.0000    0.0000    0.0000 N   0  0  0  0  0  0  0  0  0  0  0  0
    0.0000    0.0000    0.0000 C   0  0  0  0  0  0  0  0  0  0  0  0
    0.0000    0.0000    0.0000 C   0  0  0  0  0  0  0  0  0  0  0  0
  1  2  2  0
  2  3  1  0
  3  4  1  0
  4  5  2  0
  5  6  1  0
  6  7  2  0
  7  8  1  0
  8  9  2  0
  8 10  1  0
 10 11  2  0
 11 12  1  0
 12 13  2  0
 13 14  1  0
 14 15  2  0
 15 16  1  0
 16 17  2  0
 17 18  1  0
 18 19  2  0
  2 20  1  0
 20 21  2  0
 21 22  1  0
 22 23  2  0
 23 24  1  0
 24 25  2  0
 25 26  1  0
 26 27  1  0
 27 28  1  0
 28 29  2  0
 29 30  1  0
 30 31  2  0
 31 32  1  0
 32 33  2  0
  9  4  1  0
 19 10  1  0
 19 14  1  0
 25 20  1  0
 33 28  1  0
M  END
>  <pIC50>  (73) 
5.27

>  <ChEMBL_ID>  (73) 
CHEMBL347537

>  <document_journal>  (73) 
J. Med. Chem.

>  <bao_endpoint>  (73) 
BAO_0000190

>  <potential_duplicate>  (73) 
False

>  <uo_units>  (73) 
UO_0000065

>  <canonical_smiles>  (73) 
O=C(Nc1cccc(c1)c2cncc3ccccc23)c4ccccc4NCc5ccncc5

>  <parent_molecule_chembl_id>  (73) 
CHEMBL347537

>  <assay_type>  (73) 
B

>  <src_id>  (73) 
1

>  <ligand_efficiency>  (73) 
{u'le': u'0.22', u'bei': u'12.25', u'sei': u'7.88', u'lle': u'1.14'}

>  <standard_flag>  (73) 
True

>  <molecule_chembl_id>  (73) 
CHEMBL347537

>  <target_organism>  (73) 
Homo sapiens

>  <standard_units>  (73) 
nM

>  <record_id>  (73) 
300011

>  <document_chembl_id>  (73) 
CHEMBL1135689

>  <bao_format>  (73) 
BAO_0000019

>  <data_validity_description>  (73) 
None

>  <activity_id>  (73) 
1183195

>  <standard_type>  (73) 
IC50

>  <target_chembl_id>  (73) 
CHEMBL1862

>  <data_validity_comment>  (73) 
None

>  <published_value>  (73) 
5330

>  <document_year>  (73) 
2002

>  <target_pref_name>  (73) 
Tyrosine-protein kinase ABL

>  <assay_chembl_id>  (73) 
CHEMBL819334

>  <standard_relation>  (73) 
=

>  <assay_description>  (73) 
In vitro inhibition of c-Abl tyrosine kinase expressed in baculovirus

>  <published_relation>  (73) 
=

>  <standard_value>  (73) 
5330

>  <qudt_units>  (73) 
http://www.openphacts.org/units/Nanomolar

>  <target_tax_id>  (73) 
9606

>  <bao_label>  (73) 
assay format

>  <published_units>  (73) 
nM

>  <pchembl_value>  (73) 
5.27

>  <published_type>  (73) 
IC50

>  <activity_comment>  (73) 
None

$$$$

     RDKit          

 25 28  0  0  0  0  0  0  0  0999 V2000
    0.0000    0.0000    0.0000 N   0  0  0  0  0  0  0  0  0  0  0  0
    0.0000    0.0000    0.0000 C   0  0  0  0  0  0  0  0  0  0  0  0
    0.0000    0.0000    0.0000 C   0  0  0  0  0  0  0  0  0  0  0  0
    0.0000    0.0000    0.0000 C   0  0  0  0  0  0  0  0  0  0  0  0
    0.0000    0.0000    0.0000 N   0  0  0  0  0  0  0  0  0  0  0  0
    0.0000    0.0000    0.0000 C   0  0  0  0  0  0  0  0  0  0  0  0
    0.0000    0.0000    0.0000 N   0  0  0  0  0  0  0  0  0  0  0  0
    0.0000    0.0000    0.0000 N   0  0  0  0  0  0  0  0  0  0  0  0
    0.0000    0.0000    0.0000 C   0  0  0  0  0  0  0  0  0  0  0  0
    0.0000    0.0000    0.0000 C   0  0  0  0  0  0  0  0  0  0  0  0
    0.0000    0.0000    0.0000 C   0  0  0  0  0  0  0  0  0  0  0  0
    0.0000    0.0000    0.0000 C   0  0  0  0  0  0  0  0  0  0  0  0
    0.0000    0.0000    0.0000 C   0  0  0  0  0  0  0  0  0  0  0  0
    0.0000    0.0000    0.0000 C   0  0  0  0  0  0  0  0  0  0  0  0
    0.0000    0.0000    0.0000 C   0  0  0  0  0  0  0  0  0  0  0  0
    0.0000    0.0000    0.0000 C   0  0  0  0  0  0  0  0  0  0  0  0
    0.0000    0.0000    0.0000 N   0  0  0  0  0  0  0  0  0  0  0  0
    0.0000    0.0000    0.0000 N   0  0  0  0  0  0  0  0  0  0  0  0
    0.0000    0.0000    0.0000 C   0  0  0  0  0  0  0  0  0  0  0  0
    0.0000    0.0000    0.0000 C   0  0  0  0  0  0  0  0  0  0  0  0
    0.0000    0.0000    0.0000 C   0  0  0  0  0  0  0  0  0  0  0  0
    0.0000    0.0000    0.0000 C   0  0  0  0  0  0  0  0  0  0  0  0
    0.0000    0.0000    0.0000 C   0  0  0  0  0  0  0  0  0  0  0  0
    0.0000    0.0000    0.0000 C   0  0  0  0  0  0  0  0  0  0  0  0
    0.0000    0.0000    0.0000 Cl  0  0  0  0  0  0  0  0  0  0  0  0
  1  2  2  0
  2  3  1  0
  3  4  2  0
  4  5  1  0
  1  6  1  0
  6  7  2  0
  7  4  1  0
  8  2  1  0
  9  8  1  0
 10  9  2  0
  9 11  1  0
 12 10  1  0
 11 13  2  0
 14 12  2  0
 15 13  1  0
 13 14  1  0
 16  3  1  0
 17 16  2  0
 16 18  1  0
  5 17  1  0
 18 19  1  0
 19 20  2  0
 21 19  1  0
 20 22  1  0
 23 21  2  0
 22 24  2  0
 24 23  1  0
 23 25  1  0
M  END
>  <pIC50>  (74) 
5.78

>  <ChEMBL_ID>  (74) 
CHEMBL120069

>  <document_journal>  (74) 
J. Med. Chem.

>  <bao_endpoint>  (74) 
BAO_0000190

>  <potential_duplicate>  (74) 
False

>  <uo_units>  (74) 
UO_0000065

>  <canonical_smiles>  (74) 
Cc1cccc(Nc2[nH]cnc3nnc(Nc4cccc(Cl)c4)c23)c1

>  <parent_molecule_chembl_id>  (74) 
CHEMBL120069

>  <assay_type>  (74) 
B

>  <src_id>  (74) 
1

>  <ligand_efficiency>  (74) 
{u'le': u'0.32', u'bei': u'16.48', u'sei': u'7.36', u'lle': u'1.23'}

>  <standard_flag>  (74) 
True

>  <molecule_chembl_id>  (74) 
CHEMBL120069

>  <target_organism>  (74) 
Homo sapiens

>  <standard_units>  (74) 
nM

>  <record_id>  (74) 
228529

>  <document_chembl_id>  (74) 
CHEMBL1130217

>  <bao_format>  (74) 
BAO_0000357

>  <data_validity_description>  (74) 
None

>  <activity_id>  (74) 
1183556

>  <standard_type>  (74) 
IC50

>  <target_chembl_id>  (74) 
CHEMBL1862

>  <data_validity_comment>  (74) 
None

>  <published_value>  (74) 
1.65

>  <document_year>  (74) 
1997

>  <target_pref_name>  (74) 
Tyrosine-protein kinase ABL

>  <assay_chembl_id>  (74) 
CHEMBL847373

>  <standard_relation>  (74) 
=

>  <assay_description>  (74) 
Inhibitory activity against v-Abl tyrosine kinase

>  <published_relation>  (74) 
=

>  <standard_value>  (74) 
1650

>  <qudt_units>  (74) 
http://www.openphacts.org/units/Nanomolar

>  <target_tax_id>  (74) 
9606

>  <bao_label>  (74) 
single protein format

>  <published_units>  (74) 
uM

>  <pchembl_value>  (74) 
5.78

>  <published_type>  (74) 
IC50

>  <activity_comment>  (74) 
None

$$$$

     RDKit          

 23 26  0  0  0  0  0  0  0  0999 V2000
    0.0000    0.0000    0.0000 N   0  0  0  0  0  0  0  0  0  0  0  0
    0.0000    0.0000    0.0000 C   0  0  0  0  0  0  0  0  0  0  0  0
    0.0000    0.0000    0.0000 C   0  0  0  0  0  0  0  0  0  0  0  0
    0.0000    0.0000    0.0000 C   0  0  0  0  0  0  0  0  0  0  0  0
    0.0000    0.0000    0.0000 N   0  0  0  0  0  0  0  0  0  0  0  0
    0.0000    0.0000    0.0000 C   0  0  0  0  0  0  0  0  0  0  0  0
    0.0000    0.0000    0.0000 N   0  0  0  0  0  0  0  0  0  0  0  0
    0.0000    0.0000    0.0000 N   0  0  0  0  0  0  0  0  0  0  0  0
    0.0000    0.0000    0.0000 C   0  0  0  0  0  0  0  0  0  0  0  0
    0.0000    0.0000    0.0000 C   0  0  0  0  0  0  0  0  0  0  0  0
    0.0000    0.0000    0.0000 C   0  0  0  0  0  0  0  0  0  0  0  0
    0.0000    0.0000    0.0000 C   0  0  0  0  0  0  0  0  0  0  0  0
    0.0000    0.0000    0.0000 C   0  0  0  0  0  0  0  0  0  0  0  0
    0.0000    0.0000    0.0000 C   0  0  0  0  0  0  0  0  0  0  0  0
    0.0000    0.0000    0.0000 Cl  0  0  0  0  0  0  0  0  0  0  0  0
    0.0000    0.0000    0.0000 C   0  0  0  0  0  0  0  0  0  0  0  0
    0.0000    0.0000    0.0000 N   0  0  0  0  0  0  0  0  0  0  0  0
    0.0000    0.0000    0.0000 C   0  0  0  0  0  0  0  0  0  0  0  0
    0.0000    0.0000    0.0000 C   0  0  0  0  0  0  0  0  0  0  0  0
    0.0000    0.0000    0.0000 C   0  0  0  0  0  0  0  0  0  0  0  0
    0.0000    0.0000    0.0000 C   0  0  0  0  0  0  0  0  0  0  0  0
    0.0000    0.0000    0.0000 C   0  0  0  0  0  0  0  0  0  0  0  0
    0.0000    0.0000    0.0000 C   0  0  0  0  0  0  0  0  0  0  0  0
  1  2  2  0
  2  3  1  0
  3  4  2  0
  4  5  1  0
  1  6  1  0
  6  7  2  0
  7  4  1  0
  8  2  1  0
  9  8  1  0
 10  9  2  0
  9 11  1  0
 12 10  1  0
 11 13  2  0
 14 12  2  0
 15 13  1  0
 13 14  1  0
 16  3  1  0
 17 16  2  0
 16 18  1  0
  5 17  1  0
 18 19  2  0
 20 18  1  0
 19 21  1  0
 22 20  2  0
 21 23  2  0
 23 22  1  0
M  END
>  <pIC50>  (75) 
5.43

>  <ChEMBL_ID>  (75) 
CHEMBL119977

>  <document_journal>  (75) 
J. Med. Chem.

>  <bao_endpoint>  (75) 
BAO_0000190

>  <potential_duplicate>  (75) 
False

>  <uo_units>  (75) 
UO_0000065

>  <canonical_smiles>  (75) 
Clc1cccc(Nc2[nH]cnc3nnc(c4ccccc4)c23)c1

>  <parent_molecule_chembl_id>  (75) 
CHEMBL119977

>  <assay_type>  (75) 
B

>  <src_id>  (75) 
1

>  <ligand_efficiency>  (75) 
{u'le': u'0.32', u'bei': u'16.86', u'sei': u'8.16', u'lle': u'1.5'}

>  <standard_flag>  (75) 
True

>  <molecule_chembl_id>  (75) 
CHEMBL119977

>  <target_organism>  (75) 
Homo sapiens

>  <standard_units>  (75) 
nM

>  <record_id>  (75) 
228508

>  <document_chembl_id>  (75) 
CHEMBL1130217

>  <bao_format>  (75) 
BAO_0000357

>  <data_validity_description>  (75) 
None

>  <activity_id>  (75) 
1183567

>  <standard_type>  (75) 
IC50

>  <target_chembl_id>  (75) 
CHEMBL1862

>  <data_validity_comment>  (75) 
None

>  <published_value>  (75) 
3.76

>  <document_year>  (75) 
1997

>  <target_pref_name>  (75) 
Tyrosine-protein kinase ABL

>  <assay_chembl_id>  (75) 
CHEMBL847373

>  <standard_relation>  (75) 
=

>  <assay_description>  (75) 
Inhibitory activity against v-Abl tyrosine kinase

>  <published_relation>  (75) 
=

>  <standard_value>  (75) 
3760

>  <qudt_units>  (75) 
http://www.openphacts.org/units/Nanomolar

>  <target_tax_id>  (75) 
9606

>  <bao_label>  (75) 
single protein format

>  <published_units>  (75) 
uM

>  <pchembl_value>  (75) 
5.43

>  <published_type>  (75) 
IC50

>  <activity_comment>  (75) 
None

$$$$

     RDKit          

 24 27  0  0  0  0  0  0  0  0999 V2000
    0.0000    0.0000    0.0000 O   0  0  0  0  0  0  0  0  0  0  0  0
    0.0000    0.0000    0.0000 C   0  0  0  0  0  0  0  0  0  0  0  0
    0.0000    0.0000    0.0000 C   0  0  0  0  0  0  0  0  0  0  0  0
    0.0000    0.0000    0.0000 C   0  0  0  0  0  0  0  0  0  0  0  0
    0.0000    0.0000    0.0000 C   0  0  0  0  0  0  0  0  0  0  0  0
    0.0000    0.0000    0.0000 C   0  0  0  0  0  0  0  0  0  0  0  0
    0.0000    0.0000    0.0000 C   0  0  0  0  0  0  0  0  0  0  0  0
    0.0000    0.0000    0.0000 C   0  0  0  0  0  0  0  0  0  0  0  0
    0.0000    0.0000    0.0000 N   0  0  0  0  0  0  0  0  0  0  0  0
    0.0000    0.0000    0.0000 N   0  0  0  0  0  0  0  0  0  0  0  0
    0.0000    0.0000    0.0000 C   0  0  0  0  0  0  0  0  0  0  0  0
    0.0000    0.0000    0.0000 N   0  0  0  0  0  0  0  0  0  0  0  0
    0.0000    0.0000    0.0000 C   0  0  0  0  0  0  0  0  0  0  0  0
    0.0000    0.0000    0.0000 N   0  0  0  0  0  0  0  0  0  0  0  0
    0.0000    0.0000    0.0000 C   0  0  0  0  0  0  0  0  0  0  0  0
    0.0000    0.0000    0.0000 N   0  0  0  0  0  0  0  0  0  0  0  0
    0.0000    0.0000    0.0000 C   0  0  0  0  0  0  0  0  0  0  0  0
    0.0000    0.0000    0.0000 C   0  0  0  0  0  0  0  0  0  0  0  0
    0.0000    0.0000    0.0000 C   0  0  0  0  0  0  0  0  0  0  0  0
    0.0000    0.0000    0.0000 C   0  0  0  0  0  0  0  0  0  0  0  0
    0.0000    0.0000    0.0000 C   0  0  0  0  0  0  0  0  0  0  0  0
    0.0000    0.0000    0.0000 Cl  0  0  0  0  0  0  0  0  0  0  0  0
    0.0000    0.0000    0.0000 C   0  0  0  0  0  0  0  0  0  0  0  0
    0.0000    0.0000    0.0000 C   0  0  0  0  0  0  0  0  0  0  0  0
  1  2  1  0
  2  3  2  0
  3  4  1  0
  4  5  2  0
  5  6  1  0
  6  7  2  0
  5  8  1  0
  8  9  1  0
  9 10  1  0
 10 11  2  0
 11 12  1  0
 12 13  2  0
 13 14  1  0
 14 15  2  0
 15 16  1  0
 16 17  1  0
 17 18  2  0
 18 19  1  0
 19 20  2  0
 20 21  1  0
 21 22  1  0
 21 23  2  0
 15 24  1  0
  7  2  1  0
 24  8  2  0
 24 11  1  0
 23 17  1  0
M  END
>  <pIC50>  (76) 
6.62

>  <ChEMBL_ID>  (76) 
CHEMBL118130

>  <document_journal>  (76) 
J. Med. Chem.

>  <bao_endpoint>  (76) 
BAO_0000190

>  <potential_duplicate>  (76) 
False

>  <uo_units>  (76) 
UO_0000065

>  <canonical_smiles>  (76) 
Oc1ccc(cc1)c2[nH]nc3ncnc(Nc4cccc(Cl)c4)c23

>  <parent_molecule_chembl_id>  (76) 
CHEMBL118130

>  <assay_type>  (76) 
B

>  <src_id>  (76) 
1

>  <ligand_efficiency>  (76) 
{u'le': u'0.38', u'bei': u'19.6', u'sei': u'7.63', u'lle': u'2.27'}

>  <standard_flag>  (76) 
True

>  <molecule_chembl_id>  (76) 
CHEMBL118130

>  <target_organism>  (76) 
Homo sapiens

>  <standard_units>  (76) 
nM

>  <record_id>  (76) 
228523

>  <document_chembl_id>  (76) 
CHEMBL1130217

>  <bao_format>  (76) 
BAO_0000357

>  <data_validity_description>  (76) 
None

>  <activity_id>  (76) 
1183575

>  <standard_type>  (76) 
IC50

>  <target_chembl_id>  (76) 
CHEMBL1862

>  <data_validity_comment>  (76) 
None

>  <published_value>  (76) 
0.24

>  <document_year>  (76) 
1997

>  <target_pref_name>  (76) 
Tyrosine-protein kinase ABL

>  <assay_chembl_id>  (76) 
CHEMBL847373

>  <standard_relation>  (76) 
=

>  <assay_description>  (76) 
Inhibitory activity against v-Abl tyrosine kinase

>  <published_relation>  (76) 
=

>  <standard_value>  (76) 
240

>  <qudt_units>  (76) 
http://www.openphacts.org/units/Nanomolar

>  <target_tax_id>  (76) 
9606

>  <bao_label>  (76) 
single protein format

>  <published_units>  (76) 
uM

>  <pchembl_value>  (76) 
6.62

>  <published_type>  (76) 
IC50

>  <activity_comment>  (76) 
None

$$$$

     RDKit          

 40 41  0  0  0  0  0  0  0  0999 V2000
    0.0000    0.0000    0.0000 C   0  0  0  0  0  0  0  0  0  0  0  0
    0.0000    0.0000    0.0000 C   0  0  0  0  0  0  0  0  0  0  0  0
    0.0000    0.0000    0.0000 C   0  0  0  0  0  0  0  0  0  0  0  0
    0.0000    0.0000    0.0000 C   0  0  0  0  0  0  0  0  0  0  0  0
    0.0000    0.0000    0.0000 N   0  0  0  0  0  0  0  0  0  0  0  0
    0.0000    0.0000    0.0000 C   0  0  0  0  0  0  0  0  0  0  0  0
    0.0000    0.0000    0.0000 O   0  0  0  0  0  0  0  0  0  0  0  0
    0.0000    0.0000    0.0000 C   0  0  0  0  0  0  0  0  0  0  0  0
    0.0000    0.0000    0.0000 C   0  0  0  0  0  0  0  0  0  0  0  0
    0.0000    0.0000    0.0000 C   0  0  0  0  0  0  0  0  0  0  0  0
    0.0000    0.0000    0.0000 C   0  0  0  0  0  0  0  0  0  0  0  0
    0.0000    0.0000    0.0000 C   0  0  0  0  0  0  0  0  0  0  0  0
    0.0000    0.0000    0.0000 C   0  0  0  0  0  0  0  0  0  0  0  0
    0.0000    0.0000    0.0000 O   0  0  0  0  0  0  0  0  0  0  0  0
    0.0000    0.0000    0.0000 P   0  0  0  0  0  0  0  0  0  0  0  0
    0.0000    0.0000    0.0000 O   0  0  0  0  0  0  0  0  0  0  0  0
    0.0000    0.0000    0.0000 O   0  0  0  0  0  0  0  0  0  0  0  0
    0.0000    0.0000    0.0000 O   0  0  0  0  0  0  0  0  0  0  0  0
    0.0000    0.0000    0.0000 C   0  0  0  0  0  0  0  0  0  0  0  0
    0.0000    0.0000    0.0000 C   0  0  0  0  0  0  0  0  0  0  0  0
    0.0000    0.0000    0.0000 N   0  0  0  0  0  0  0  0  0  0  0  0
    0.0000    0.0000    0.0000 C   0  0  0  0  0  0  0  0  0  0  0  0
    0.0000    0.0000    0.0000 O   0  0  0  0  0  0  0  0  0  0  0  0
    0.0000    0.0000    0.0000 C   0  0  0  0  0  0  0  0  0  0  0  0
    0.0000    0.0000    0.0000 C   0  0  0  0  0  0  0  0  0  0  0  0
    0.0000    0.0000    0.0000 O   0  0  0  0  0  0  0  0  0  0  0  0
    0.0000    0.0000    0.0000 N   0  0  0  0  0  0  0  0  0  0  0  0
    0.0000    0.0000    0.0000 C   0  0  0  0  0  0  0  0  0  0  0  0
    0.0000    0.0000    0.0000 C   0  0  0  0  0  0  0  0  0  0  0  0
    0.0000    0.0000    0.0000 C   0  0  0  0  0  0  0  0  0  0  0  0
    0.0000    0.0000    0.0000 O   0  0  0  0  0  0  0  0  0  0  0  0
    0.0000    0.0000    0.0000 N   0  0  0  0  0  0  0  0  0  0  0  0
    0.0000    0.0000    0.0000 C   0  0  0  0  0  0  0  0  0  0  0  0
    0.0000    0.0000    0.0000 C   0  0  0  0  0  0  0  0  0  0  0  0
    0.0000    0.0000    0.0000 C   0  0  0  0  0  0  0  0  0  0  0  0
    0.0000    0.0000    0.0000 C   0  0  0  0  0  0  0  0  0  0  0  0
    0.0000    0.0000    0.0000 C   0  0  0  0  0  0  0  0  0  0  0  0
    0.0000    0.0000    0.0000 C   0  0  0  0  0  0  0  0  0  0  0  0
    0.0000    0.0000    0.0000 C   0  0  0  0  0  0  0  0  0  0  0  0
    0.0000    0.0000    0.0000 C   0  0  0  0  0  0  0  0  0  0  0  0
  1  2  1  0
  2  3  1  0
  2  4  1  0
  4  5  1  0
  5  6  1  0
  6  7  2  0
  6  8  1  0
  8  9  1  0
  9 10  1  0
 10 11  2  0
 11 12  1  0
 12 13  2  0
 13 14  1  0
 14 15  1  0
 15 16  2  0
 15 17  1  0
 15 18  1  0
 13 19  1  0
 19 20  2  0
  8 21  1  0
 21 22  1  0
 22 23  2  0
 22 24  1  0
  4 25  1  0
 25 26  2  0
 25 27  1  0
 27 28  1  0
 28 29  1  0
 28 30  1  0
 30 31  2  0
 30 32  1  0
 32 33  1  0
 33 34  1  0
 34 35  1  0
 35 36  2  0
 36 37  1  0
 37 38  2  0
 38 39  1  0
 39 40  2  0
 20 10  1  0
 40 35  1  0
M  END
>  <pIC50>  (77) 
4.14

>  <ChEMBL_ID>  (77) 
CHEMBL343050

>  <document_journal>  (77) 
J. Med. Chem.

>  <bao_endpoint>  (77) 
BAO_0000190

>  <potential_duplicate>  (77) 
False

>  <uo_units>  (77) 
UO_0000065

>  <canonical_smiles>  (77) 
CC(C)[C@H](NC(=O)[C@H](Cc1ccc(OP(=O)(O)O)cc1)NC(=O)C)C(=O)N[C@@H](C)C(=O)NCCc2ccccc2

>  <parent_molecule_chembl_id>  (77) 
CHEMBL343050

>  <assay_type>  (77) 
B

>  <src_id>  (77) 
1

>  <ligand_efficiency>  (77) 
{u'le': u'0.14', u'bei': u'7.18', u'sei': u'2.15', u'lle': u'2.33'}

>  <standard_flag>  (77) 
True

>  <molecule_chembl_id>  (77) 
CHEMBL343050

>  <target_organism>  (77) 
Homo sapiens

>  <standard_units>  (77) 
nM

>  <record_id>  (77) 
262958

>  <document_chembl_id>  (77) 
CHEMBL1131295

>  <bao_format>  (77) 
BAO_0000219

>  <data_validity_description>  (77) 
None

>  <activity_id>  (77) 
1194101

>  <standard_type>  (77) 
IC50

>  <target_chembl_id>  (77) 
CHEMBL1862

>  <data_validity_comment>  (77) 
None

>  <published_value>  (77) 
72

>  <document_year>  (77) 
1998

>  <target_pref_name>  (77) 
Tyrosine-protein kinase ABL

>  <assay_chembl_id>  (77) 
CHEMBL768940

>  <standard_relation>  (77) 
=

>  <assay_description>  (77) 
Binding affinity against abl SH2 domain of Platelet-derived growth factor receptor beta in Sf9 insect cells

>  <published_relation>  (77) 
=

>  <standard_value>  (77) 
72000

>  <qudt_units>  (77) 
http://www.openphacts.org/units/Nanomolar

>  <target_tax_id>  (77) 
9606

>  <bao_label>  (77) 
cell-based format

>  <published_units>  (77) 
uM

>  <pchembl_value>  (77) 
4.14

>  <published_type>  (77) 
IC50

>  <activity_comment>  (77) 
None

$$$$

     RDKit          

 48 48  0  0  0  0  0  0  0  0999 V2000
    0.0000    0.0000    0.0000 C   0  0  0  0  0  0  0  0  0  0  0  0
    0.0000    0.0000    0.0000 C   0  0  0  0  0  0  0  0  0  0  0  0
    0.0000    0.0000    0.0000 C   0  0  0  0  0  0  0  0  0  0  0  0
    0.0000    0.0000    0.0000 C   0  0  0  0  0  0  0  0  0  0  0  0
    0.0000    0.0000    0.0000 C   0  0  0  0  0  0  0  0  0  0  0  0
    0.0000    0.0000    0.0000 C   0  0  0  0  0  0  0  0  0  0  0  0
    0.0000    0.0000    0.0000 C   0  0  0  0  0  0  0  0  0  0  0  0
    0.0000    0.0000    0.0000 C   0  0  0  0  0  0  0  0  0  0  0  0
    0.0000    0.0000    0.0000 N   0  0  0  0  0  0  0  0  0  0  0  0
    0.0000    0.0000    0.0000 C   0  0  0  0  0  0  0  0  0  0  0  0
    0.0000    0.0000    0.0000 C   0  0  0  0  0  0  0  0  0  0  0  0
    0.0000    0.0000    0.0000 C   0  0  0  0  0  0  0  0  0  0  0  0
    0.0000    0.0000    0.0000 C   0  0  0  0  0  0  0  0  0  0  0  0
    0.0000    0.0000    0.0000 C   0  0  0  0  0  0  0  0  0  0  0  0
    0.0000    0.0000    0.0000 C   0  0  0  0  0  0  0  0  0  0  0  0
    0.0000    0.0000    0.0000 C   0  0  0  0  0  0  0  0  0  0  0  0
    0.0000    0.0000    0.0000 C   0  0  0  0  0  0  0  0  0  0  0  0
    0.0000    0.0000    0.0000 C   0  0  0  0  0  0  0  0  0  0  0  0
    0.0000    0.0000    0.0000 O   0  0  0  0  0  0  0  0  0  0  0  0
    0.0000    0.0000    0.0000 C   0  0  0  0  0  0  0  0  0  0  0  0
    0.0000    0.0000    0.0000 C   0  0  0  0  0  0  0  0  0  0  0  0
    0.0000    0.0000    0.0000 N   0  0  0  0  0  0  0  0  0  0  0  0
    0.0000    0.0000    0.0000 C   0  0  0  0  0  0  0  0  0  0  0  0
    0.0000    0.0000    0.0000 O   0  0  0  0  0  0  0  0  0  0  0  0
    0.0000    0.0000    0.0000 C   0  0  0  0  0  0  0  0  0  0  0  0
    0.0000    0.0000    0.0000 N   0  0  0  0  0  0  0  0  0  0  0  0
    0.0000    0.0000    0.0000 C   0  0  0  0  0  0  0  0  0  0  0  0
    0.0000    0.0000    0.0000 O   0  0  0  0  0  0  0  0  0  0  0  0
    0.0000    0.0000    0.0000 C   0  0  0  0  0  0  0  0  0  0  0  0
    0.0000    0.0000    0.0000 C   0  0  0  0  0  0  0  0  0  0  0  0
    0.0000    0.0000    0.0000 C   0  0  0  0  0  0  0  0  0  0  0  0
    0.0000    0.0000    0.0000 C   0  0  0  0  0  0  0  0  0  0  0  0
    0.0000    0.0000    0.0000 C   0  0  0  0  0  0  0  0  0  0  0  0
    0.0000    0.0000    0.0000 C   0  0  0  0  0  0  0  0  0  0  0  0
    0.0000    0.0000    0.0000 O   0  0  0  0  0  0  0  0  0  0  0  0
    0.0000    0.0000    0.0000 P   0  0  0  0  0  0  0  0  0  0  0  0
    0.0000    0.0000    0.0000 O   0  0  0  0  0  0  0  0  0  0  0  0
    0.0000    0.0000    0.0000 O   0  0  0  0  0  0  0  0  0  0  0  0
    0.0000    0.0000    0.0000 O   0  0  0  0  0  0  0  0  0  0  0  0
    0.0000    0.0000    0.0000 C   0  0  0  0  0  0  0  0  0  0  0  0
    0.0000    0.0000    0.0000 C   0  0  0  0  0  0  0  0  0  0  0  0
    0.0000    0.0000    0.0000 N   0  0  0  0  0  0  0  0  0  0  0  0
    0.0000    0.0000    0.0000 C   0  0  0  0  0  0  0  0  0  0  0  0
    0.0000    0.0000    0.0000 O   0  0  0  0  0  0  0  0  0  0  0  0
    0.0000    0.0000    0.0000 C   0  0  0  0  0  0  0  0  0  0  0  0
    0.0000    0.0000    0.0000 C   0  0  0  0  0  0  0  0  0  0  0  0
    0.0000    0.0000    0.0000 C   0  0  0  0  0  0  0  0  0  0  0  0
    0.0000    0.0000    0.0000 C   0  0  0  0  0  0  0  0  0  0  0  0
  1  2  1  0
  2  3  1  0
  3  4  1  0
  4  5  1  0
  5  6  1  0
  6  7  1  0
  7  8  1  0
  8  9  1  0
  9 10  1  0
 10 11  1  0
 11 12  1  0
 12 13  1  0
 13 14  1  0
 14 15  1  0
 15 16  1  0
 16 17  1  0
  9 18  1  0
 18 19  2  0
 18 20  1  0
 20 21  1  0
 20 22  1  0
 22 23  1  0
 23 24  2  0
 23 25  1  0
 25 26  1  0
 26 27  1  0
 27 28  2  0
 27 29  1  0
 29 30  1  0
 30 31  1  0
 31 32  2  0
 32 33  1  0
 33 34  2  0
 34 35  1  0
 35 36  1  0
 36 37  2  0
 36 38  1  0
 36 39  1  0
 34 40  1  0
 40 41  2  0
 29 42  1  0
 42 43  1  0
 43 44  2  0
 43 45  1  0
 25 46  1  0
 46 47  1  0
 46 48  1  0
 41 31  1  0
M  END
>  <pIC50>  (78) 
4.02

>  <ChEMBL_ID>  (78) 
CHEMBL137653

>  <document_journal>  (78) 
J. Med. Chem.

>  <bao_endpoint>  (78) 
BAO_0000190

>  <potential_duplicate>  (78) 
False

>  <uo_units>  (78) 
UO_0000065

>  <canonical_smiles>  (78) 
CCCCCCCCN(CCCCCCCC)C(=O)[C@H](C)NC(=O)[C@@H](NC(=O)[C@H](Cc1ccc(OP(=O)(O)O)cc1)NC(=O)C)C(C)C

>  <parent_molecule_chembl_id>  (78) 
CHEMBL137653

>  <assay_type>  (78) 
B

>  <src_id>  (78) 
1

>  <ligand_efficiency>  (78) 
{u'le': u'0.11', u'bei': u'5.77', u'sei': u'2.18', u'lle': u'-2.4'}

>  <standard_flag>  (78) 
True

>  <molecule_chembl_id>  (78) 
CHEMBL137653

>  <target_organism>  (78) 
Homo sapiens

>  <standard_units>  (78) 
nM

>  <record_id>  (78) 
262960

>  <document_chembl_id>  (78) 
CHEMBL1131295

>  <bao_format>  (78) 
BAO_0000219

>  <data_validity_description>  (78) 
None

>  <activity_id>  (78) 
1196570

>  <standard_type>  (78) 
IC50

>  <target_chembl_id>  (78) 
CHEMBL1862

>  <data_validity_comment>  (78) 
None

>  <published_value>  (78) 
95.9

>  <document_year>  (78) 
1998

>  <target_pref_name>  (78) 
Tyrosine-protein kinase ABL

>  <assay_chembl_id>  (78) 
CHEMBL768940

>  <standard_relation>  (78) 
=

>  <assay_description>  (78) 
Binding affinity against abl SH2 domain of Platelet-derived growth factor receptor beta in Sf9 insect cells

>  <published_relation>  (78) 
=

>  <standard_value>  (78) 
95900

>  <qudt_units>  (78) 
http://www.openphacts.org/units/Nanomolar

>  <target_tax_id>  (78) 
9606

>  <bao_label>  (78) 
cell-based format

>  <published_units>  (78) 
uM

>  <pchembl_value>  (78) 
4.02

>  <published_type>  (78) 
IC50

>  <activity_comment>  (78) 
None

$$$$

     RDKit          

 40 40  0  0  0  0  0  0  0  0999 V2000
    0.0000    0.0000    0.0000 C   0  0  0  0  0  0  0  0  0  0  0  0
    0.0000    0.0000    0.0000 C   0  0  0  0  0  0  0  0  0  0  0  0
    0.0000    0.0000    0.0000 C   0  0  0  0  0  0  0  0  0  0  0  0
    0.0000    0.0000    0.0000 C   0  0  0  0  0  0  0  0  0  0  0  0
    0.0000    0.0000    0.0000 N   0  0  0  0  0  0  0  0  0  0  0  0
    0.0000    0.0000    0.0000 C   0  0  0  0  0  0  0  0  0  0  0  0
    0.0000    0.0000    0.0000 C   0  0  0  0  0  0  0  0  0  0  0  0
    0.0000    0.0000    0.0000 C   0  0  0  0  0  0  0  0  0  0  0  0
    0.0000    0.0000    0.0000 C   0  0  0  0  0  0  0  0  0  0  0  0
    0.0000    0.0000    0.0000 C   0  0  0  0  0  0  0  0  0  0  0  0
    0.0000    0.0000    0.0000 O   0  0  0  0  0  0  0  0  0  0  0  0
    0.0000    0.0000    0.0000 C   0  0  0  0  0  0  0  0  0  0  0  0
    0.0000    0.0000    0.0000 C   0  0  0  0  0  0  0  0  0  0  0  0
    0.0000    0.0000    0.0000 N   0  0  0  0  0  0  0  0  0  0  0  0
    0.0000    0.0000    0.0000 C   0  0  0  0  0  0  0  0  0  0  0  0
    0.0000    0.0000    0.0000 O   0  0  0  0  0  0  0  0  0  0  0  0
    0.0000    0.0000    0.0000 C   0  0  0  0  0  0  0  0  0  0  0  0
    0.0000    0.0000    0.0000 N   0  0  0  0  0  0  0  0  0  0  0  0
    0.0000    0.0000    0.0000 C   0  0  0  0  0  0  0  0  0  0  0  0
    0.0000    0.0000    0.0000 O   0  0  0  0  0  0  0  0  0  0  0  0
    0.0000    0.0000    0.0000 C   0  0  0  0  0  0  0  0  0  0  0  0
    0.0000    0.0000    0.0000 C   0  0  0  0  0  0  0  0  0  0  0  0
    0.0000    0.0000    0.0000 C   0  0  0  0  0  0  0  0  0  0  0  0
    0.0000    0.0000    0.0000 C   0  0  0  0  0  0  0  0  0  0  0  0
    0.0000    0.0000    0.0000 C   0  0  0  0  0  0  0  0  0  0  0  0
    0.0000    0.0000    0.0000 C   0  0  0  0  0  0  0  0  0  0  0  0
    0.0000    0.0000    0.0000 O   0  0  0  0  0  0  0  0  0  0  0  0
    0.0000    0.0000    0.0000 P   0  0  0  0  0  0  0  0  0  0  0  0
    0.0000    0.0000    0.0000 O   0  0  0  0  0  0  0  0  0  0  0  0
    0.0000    0.0000    0.0000 O   0  0  0  0  0  0  0  0  0  0  0  0
    0.0000    0.0000    0.0000 O   0  0  0  0  0  0  0  0  0  0  0  0
    0.0000    0.0000    0.0000 C   0  0  0  0  0  0  0  0  0  0  0  0
    0.0000    0.0000    0.0000 C   0  0  0  0  0  0  0  0  0  0  0  0
    0.0000    0.0000    0.0000 N   0  0  0  0  0  0  0  0  0  0  0  0
    0.0000    0.0000    0.0000 C   0  0  0  0  0  0  0  0  0  0  0  0
    0.0000    0.0000    0.0000 O   0  0  0  0  0  0  0  0  0  0  0  0
    0.0000    0.0000    0.0000 C   0  0  0  0  0  0  0  0  0  0  0  0
    0.0000    0.0000    0.0000 C   0  0  0  0  0  0  0  0  0  0  0  0
    0.0000    0.0000    0.0000 C   0  0  0  0  0  0  0  0  0  0  0  0
    0.0000    0.0000    0.0000 C   0  0  0  0  0  0  0  0  0  0  0  0
  1  2  1  0
  2  3  1  0
  3  4  1  0
  4  5  1  0
  5  6  1  0
  6  7  1  0
  7  8  1  0
  8  9  1  0
  5 10  1  0
 10 11  2  0
 10 12  1  0
 12 13  1  0
 12 14  1  0
 14 15  1  0
 15 16  2  0
 15 17  1  0
 17 18  1  0
 18 19  1  0
 19 20  2  0
 19 21  1  0
 21 22  1  0
 22 23  1  0
 23 24  2  0
 24 25  1  0
 25 26  2  0
 26 27  1  0
 27 28  1  0
 28 29  2  0
 28 30  1  0
 28 31  1  0
 26 32  1  0
 32 33  2  0
 21 34  1  0
 34 35  1  0
 35 36  2  0
 35 37  1  0
 17 38  1  0
 38 39  1  0
 38 40  1  0
 33 23  1  0
M  END
>  <pIC50>  (79) 
5.13

>  <ChEMBL_ID>  (79) 
CHEMBL327958

>  <document_journal>  (79) 
J. Med. Chem.

>  <bao_endpoint>  (79) 
BAO_0000190

>  <potential_duplicate>  (79) 
False

>  <uo_units>  (79) 
UO_0000065

>  <canonical_smiles>  (79) 
CCCCN(CCCC)C(=O)[C@H](C)NC(=O)[C@@H](NC(=O)[C@H](Cc1ccc(OP(=O)(O)O)cc1)NC(=O)C)C(C)C

>  <parent_molecule_chembl_id>  (79) 
CHEMBL327958

>  <assay_type>  (79) 
B

>  <src_id>  (79) 
1

>  <ligand_efficiency>  (79) 
{u'le': u'0.18', u'bei': u'8.78', u'sei': u'2.79', u'lle': u'2.36'}

>  <standard_flag>  (79) 
True

>  <molecule_chembl_id>  (79) 
CHEMBL327958

>  <target_organism>  (79) 
Homo sapiens

>  <standard_units>  (79) 
nM

>  <record_id>  (79) 
262943

>  <document_chembl_id>  (79) 
CHEMBL1131295

>  <bao_format>  (79) 
BAO_0000219

>  <data_validity_description>  (79) 
None

>  <activity_id>  (79) 
1201835

>  <standard_type>  (79) 
IC50

>  <target_chembl_id>  (79) 
CHEMBL1862

>  <data_validity_comment>  (79) 
None

>  <published_value>  (79) 
7.4

>  <document_year>  (79) 
1998

>  <target_pref_name>  (79) 
Tyrosine-protein kinase ABL

>  <assay_chembl_id>  (79) 
CHEMBL768940

>  <standard_relation>  (79) 
=

>  <assay_description>  (79) 
Binding affinity against abl SH2 domain of Platelet-derived growth factor receptor beta in Sf9 insect cells

>  <published_relation>  (79) 
=

>  <standard_value>  (79) 
7400

>  <qudt_units>  (79) 
http://www.openphacts.org/units/Nanomolar

>  <target_tax_id>  (79) 
9606

>  <bao_label>  (79) 
cell-based format

>  <published_units>  (79) 
uM

>  <pchembl_value>  (79) 
5.13

>  <published_type>  (79) 
IC50

>  <activity_comment>  (79) 
None

$$$$

     RDKit          

 44 44  0  0  0  0  0  0  0  0999 V2000
    0.0000    0.0000    0.0000 C   0  0  0  0  0  0  0  0  0  0  0  0
    0.0000    0.0000    0.0000 C   0  0  0  0  0  0  0  0  0  0  0  0
    0.0000    0.0000    0.0000 C   0  0  0  0  0  0  0  0  0  0  0  0
    0.0000    0.0000    0.0000 C   0  0  0  0  0  0  0  0  0  0  0  0
    0.0000    0.0000    0.0000 C   0  0  0  0  0  0  0  0  0  0  0  0
    0.0000    0.0000    0.0000 C   0  0  0  0  0  0  0  0  0  0  0  0
    0.0000    0.0000    0.0000 N   0  0  0  0  0  0  0  0  0  0  0  0
    0.0000    0.0000    0.0000 C   0  0  0  0  0  0  0  0  0  0  0  0
    0.0000    0.0000    0.0000 C   0  0  0  0  0  0  0  0  0  0  0  0
    0.0000    0.0000    0.0000 C   0  0  0  0  0  0  0  0  0  0  0  0
    0.0000    0.0000    0.0000 C   0  0  0  0  0  0  0  0  0  0  0  0
    0.0000    0.0000    0.0000 C   0  0  0  0  0  0  0  0  0  0  0  0
    0.0000    0.0000    0.0000 C   0  0  0  0  0  0  0  0  0  0  0  0
    0.0000    0.0000    0.0000 C   0  0  0  0  0  0  0  0  0  0  0  0
    0.0000    0.0000    0.0000 O   0  0  0  0  0  0  0  0  0  0  0  0
    0.0000    0.0000    0.0000 C   0  0  0  0  0  0  0  0  0  0  0  0
    0.0000    0.0000    0.0000 C   0  0  0  0  0  0  0  0  0  0  0  0
    0.0000    0.0000    0.0000 N   0  0  0  0  0  0  0  0  0  0  0  0
    0.0000    0.0000    0.0000 C   0  0  0  0  0  0  0  0  0  0  0  0
    0.0000    0.0000    0.0000 O   0  0  0  0  0  0  0  0  0  0  0  0
    0.0000    0.0000    0.0000 C   0  0  0  0  0  0  0  0  0  0  0  0
    0.0000    0.0000    0.0000 N   0  0  0  0  0  0  0  0  0  0  0  0
    0.0000    0.0000    0.0000 C   0  0  0  0  0  0  0  0  0  0  0  0
    0.0000    0.0000    0.0000 O   0  0  0  0  0  0  0  0  0  0  0  0
    0.0000    0.0000    0.0000 C   0  0  0  0  0  0  0  0  0  0  0  0
    0.0000    0.0000    0.0000 C   0  0  0  0  0  0  0  0  0  0  0  0
    0.0000    0.0000    0.0000 C   0  0  0  0  0  0  0  0  0  0  0  0
    0.0000    0.0000    0.0000 C   0  0  0  0  0  0  0  0  0  0  0  0
    0.0000    0.0000    0.0000 C   0  0  0  0  0  0  0  0  0  0  0  0
    0.0000    0.0000    0.0000 C   0  0  0  0  0  0  0  0  0  0  0  0
    0.0000    0.0000    0.0000 O   0  0  0  0  0  0  0  0  0  0  0  0
    0.0000    0.0000    0.0000 P   0  0  0  0  0  0  0  0  0  0  0  0
    0.0000    0.0000    0.0000 O   0  0  0  0  0  0  0  0  0  0  0  0
    0.0000    0.0000    0.0000 O   0  0  0  0  0  0  0  0  0  0  0  0
    0.0000    0.0000    0.0000 O   0  0  0  0  0  0  0  0  0  0  0  0
    0.0000    0.0000    0.0000 C   0  0  0  0  0  0  0  0  0  0  0  0
    0.0000    0.0000    0.0000 C   0  0  0  0  0  0  0  0  0  0  0  0
    0.0000    0.0000    0.0000 N   0  0  0  0  0  0  0  0  0  0  0  0
    0.0000    0.0000    0.0000 C   0  0  0  0  0  0  0  0  0  0  0  0
    0.0000    0.0000    0.0000 O   0  0  0  0  0  0  0  0  0  0  0  0
    0.0000    0.0000    0.0000 C   0  0  0  0  0  0  0  0  0  0  0  0
    0.0000    0.0000    0.0000 C   0  0  0  0  0  0  0  0  0  0  0  0
    0.0000    0.0000    0.0000 C   0  0  0  0  0  0  0  0  0  0  0  0
    0.0000    0.0000    0.0000 C   0  0  0  0  0  0  0  0  0  0  0  0
  1  2  1  0
  2  3  1  0
  3  4  1  0
  4  5  1  0
  5  6  1  0
  6  7  1  0
  7  8  1  0
  8  9  1  0
  9 10  1  0
 10 11  1  0
 11 12  1  0
 12 13  1  0
  7 14  1  0
 14 15  2  0
 14 16  1  0
 16 17  1  0
 16 18  1  0
 18 19  1  0
 19 20  2  0
 19 21  1  0
 21 22  1  0
 22 23  1  0
 23 24  2  0
 23 25  1  0
 25 26  1  0
 26 27  1  0
 27 28  2  0
 28 29  1  0
 29 30  2  0
 30 31  1  0
 31 32  1  0
 32 33  2  0
 32 34  1  0
 32 35  1  0
 30 36  1  0
 36 37  2  0
 25 38  1  0
 38 39  1  0
 39 40  2  0
 39 41  1  0
 21 42  1  0
 42 43  1  0
 42 44  1  0
 37 27  1  0
M  END
>  <pIC50>  (80) 
5.3

>  <ChEMBL_ID>  (80) 
CHEMBL137706

>  <document_journal>  (80) 
J. Med. Chem.

>  <bao_endpoint>  (80) 
BAO_0000190

>  <potential_duplicate>  (80) 
False

>  <uo_units>  (80) 
UO_0000065

>  <canonical_smiles>  (80) 
CCCCCCN(CCCCCC)C(=O)[C@@H](C)NC(=O)[C@@H](NC(=O)[C@H](Cc1ccc(OP(=O)(O)O)cc1)NC(=O)C)C(C)C

>  <parent_molecule_chembl_id>  (80) 
CHEMBL137706

>  <assay_type>  (80) 
B

>  <src_id>  (80) 
1

>  <ligand_efficiency>  (80) 
{u'le': u'0.16', u'bei': u'8.27', u'sei': u'2.88', u'lle': u'0.7'}

>  <standard_flag>  (80) 
True

>  <molecule_chembl_id>  (80) 
CHEMBL137706

>  <target_organism>  (80) 
Homo sapiens

>  <standard_units>  (80) 
nM

>  <record_id>  (80) 
262961

>  <document_chembl_id>  (80) 
CHEMBL1131295

>  <bao_format>  (80) 
BAO_0000219

>  <data_validity_description>  (80) 
None

>  <activity_id>  (80) 
1204716

>  <standard_type>  (80) 
IC50

>  <target_chembl_id>  (80) 
CHEMBL1862

>  <data_validity_comment>  (80) 
None

>  <published_value>  (80) 
5

>  <document_year>  (80) 
1998

>  <target_pref_name>  (80) 
Tyrosine-protein kinase ABL

>  <assay_chembl_id>  (80) 
CHEMBL768940

>  <standard_relation>  (80) 
=

>  <assay_description>  (80) 
Binding affinity against abl SH2 domain of Platelet-derived growth factor receptor beta in Sf9 insect cells

>  <published_relation>  (80) 
=

>  <standard_value>  (80) 
5000

>  <qudt_units>  (80) 
http://www.openphacts.org/units/Nanomolar

>  <target_tax_id>  (80) 
9606

>  <bao_label>  (80) 
cell-based format

>  <published_units>  (80) 
uM

>  <pchembl_value>  (80) 
5.3

>  <published_type>  (80) 
IC50

>  <activity_comment>  (80) 
None

$$$$

     RDKit          

 42 42  0  0  0  0  0  0  0  0999 V2000
    0.0000    0.0000    0.0000 C   0  0  0  0  0  0  0  0  0  0  0  0
    0.0000    0.0000    0.0000 C   0  0  0  0  0  0  0  0  0  0  0  0
    0.0000    0.0000    0.0000 C   0  0  0  0  0  0  0  0  0  0  0  0
    0.0000    0.0000    0.0000 C   0  0  0  0  0  0  0  0  0  0  0  0
    0.0000    0.0000    0.0000 C   0  0  0  0  0  0  0  0  0  0  0  0
    0.0000    0.0000    0.0000 N   0  0  0  0  0  0  0  0  0  0  0  0
    0.0000    0.0000    0.0000 C   0  0  0  0  0  0  0  0  0  0  0  0
    0.0000    0.0000    0.0000 C   0  0  0  0  0  0  0  0  0  0  0  0
    0.0000    0.0000    0.0000 C   0  0  0  0  0  0  0  0  0  0  0  0
    0.0000    0.0000    0.0000 C   0  0  0  0  0  0  0  0  0  0  0  0
    0.0000    0.0000    0.0000 C   0  0  0  0  0  0  0  0  0  0  0  0
    0.0000    0.0000    0.0000 C   0  0  0  0  0  0  0  0  0  0  0  0
    0.0000    0.0000    0.0000 O   0  0  0  0  0  0  0  0  0  0  0  0
    0.0000    0.0000    0.0000 C   0  0  0  0  0  0  0  0  0  0  0  0
    0.0000    0.0000    0.0000 C   0  0  0  0  0  0  0  0  0  0  0  0
    0.0000    0.0000    0.0000 N   0  0  0  0  0  0  0  0  0  0  0  0
    0.0000    0.0000    0.0000 C   0  0  0  0  0  0  0  0  0  0  0  0
    0.0000    0.0000    0.0000 O   0  0  0  0  0  0  0  0  0  0  0  0
    0.0000    0.0000    0.0000 C   0  0  0  0  0  0  0  0  0  0  0  0
    0.0000    0.0000    0.0000 N   0  0  0  0  0  0  0  0  0  0  0  0
    0.0000    0.0000    0.0000 C   0  0  0  0  0  0  0  0  0  0  0  0
    0.0000    0.0000    0.0000 O   0  0  0  0  0  0  0  0  0  0  0  0
    0.0000    0.0000    0.0000 C   0  0  0  0  0  0  0  0  0  0  0  0
    0.0000    0.0000    0.0000 C   0  0  0  0  0  0  0  0  0  0  0  0
    0.0000    0.0000    0.0000 C   0  0  0  0  0  0  0  0  0  0  0  0
    0.0000    0.0000    0.0000 C   0  0  0  0  0  0  0  0  0  0  0  0
    0.0000    0.0000    0.0000 C   0  0  0  0  0  0  0  0  0  0  0  0
    0.0000    0.0000    0.0000 C   0  0  0  0  0  0  0  0  0  0  0  0
    0.0000    0.0000    0.0000 O   0  0  0  0  0  0  0  0  0  0  0  0
    0.0000    0.0000    0.0000 P   0  0  0  0  0  0  0  0  0  0  0  0
    0.0000    0.0000    0.0000 O   0  0  0  0  0  0  0  0  0  0  0  0
    0.0000    0.0000    0.0000 O   0  0  0  0  0  0  0  0  0  0  0  0
    0.0000    0.0000    0.0000 O   0  0  0  0  0  0  0  0  0  0  0  0
    0.0000    0.0000    0.0000 C   0  0  0  0  0  0  0  0  0  0  0  0
    0.0000    0.0000    0.0000 C   0  0  0  0  0  0  0  0  0  0  0  0
    0.0000    0.0000    0.0000 N   0  0  0  0  0  0  0  0  0  0  0  0
    0.0000    0.0000    0.0000 C   0  0  0  0  0  0  0  0  0  0  0  0
    0.0000    0.0000    0.0000 O   0  0  0  0  0  0  0  0  0  0  0  0
    0.0000    0.0000    0.0000 C   0  0  0  0  0  0  0  0  0  0  0  0
    0.0000    0.0000    0.0000 C   0  0  0  0  0  0  0  0  0  0  0  0
    0.0000    0.0000    0.0000 C   0  0  0  0  0  0  0  0  0  0  0  0
    0.0000    0.0000    0.0000 C   0  0  0  0  0  0  0  0  0  0  0  0
  1  2  1  0
  2  3  1  0
  3  4  1  0
  4  5  1  0
  5  6  1  0
  6  7  1  0
  7  8  1  0
  8  9  1  0
  9 10  1  0
 10 11  1  0
  6 12  1  0
 12 13  2  0
 12 14  1  0
 14 15  1  0
 14 16  1  0
 16 17  1  0
 17 18  2  0
 17 19  1  0
 19 20  1  0
 20 21  1  0
 21 22  2  0
 21 23  1  0
 23 24  1  0
 24 25  1  0
 25 26  2  0
 26 27  1  0
 27 28  2  0
 28 29  1  0
 29 30  1  0
 30 31  2  0
 30 32  1  0
 30 33  1  0
 28 34  1  0
 34 35  2  0
 23 36  1  0
 36 37  1  0
 37 38  2  0
 37 39  1  0
 19 40  1  0
 40 41  1  0
 40 42  1  0
 35 25  1  0
M  END
>  <pIC50>  (81) 
4.59

>  <ChEMBL_ID>  (81) 
CHEMBL405059

>  <document_journal>  (81) 
J. Med. Chem.

>  <bao_endpoint>  (81) 
BAO_0000190

>  <potential_duplicate>  (81) 
False

>  <uo_units>  (81) 
UO_0000065

>  <canonical_smiles>  (81) 
CCCCCN(CCCCC)C(=O)[C@H](C)NC(=O)[C@@H](NC(=O)[C@H](Cc1ccc(OP(=O)(O)O)cc1)NC(=O)C)C(C)C

>  <parent_molecule_chembl_id>  (81) 
CHEMBL405059

>  <assay_type>  (81) 
B

>  <src_id>  (81) 
1

>  <ligand_efficiency>  (81) 
{u'le': u'0.15', u'bei': u'7.49', u'sei': u'2.49', u'lle': u'0.91'}

>  <standard_flag>  (81) 
True

>  <molecule_chembl_id>  (81) 
CHEMBL405059

>  <target_organism>  (81) 
Homo sapiens

>  <standard_units>  (81) 
nM

>  <record_id>  (81) 
262945

>  <document_chembl_id>  (81) 
CHEMBL1131295

>  <bao_format>  (81) 
BAO_0000219

>  <data_validity_description>  (81) 
None

>  <activity_id>  (81) 
1206033

>  <standard_type>  (81) 
IC50

>  <target_chembl_id>  (81) 
CHEMBL1862

>  <data_validity_comment>  (81) 
None

>  <published_value>  (81) 
25.7

>  <document_year>  (81) 
1998

>  <target_pref_name>  (81) 
Tyrosine-protein kinase ABL

>  <assay_chembl_id>  (81) 
CHEMBL768940

>  <standard_relation>  (81) 
=

>  <assay_description>  (81) 
Binding affinity against abl SH2 domain of Platelet-derived growth factor receptor beta in Sf9 insect cells

>  <published_relation>  (81) 
=

>  <standard_value>  (81) 
25700

>  <qudt_units>  (81) 
http://www.openphacts.org/units/Nanomolar

>  <target_tax_id>  (81) 
9606

>  <bao_label>  (81) 
cell-based format

>  <published_units>  (81) 
uM

>  <pchembl_value>  (81) 
4.59

>  <published_type>  (81) 
IC50

>  <activity_comment>  (81) 
None

$$$$

     RDKit          

 44 44  0  0  0  0  0  0  0  0999 V2000
    0.0000    0.0000    0.0000 C   0  0  0  0  0  0  0  0  0  0  0  0
    0.0000    0.0000    0.0000 C   0  0  0  0  0  0  0  0  0  0  0  0
    0.0000    0.0000    0.0000 C   0  0  0  0  0  0  0  0  0  0  0  0
    0.0000    0.0000    0.0000 C   0  0  0  0  0  0  0  0  0  0  0  0
    0.0000    0.0000    0.0000 C   0  0  0  0  0  0  0  0  0  0  0  0
    0.0000    0.0000    0.0000 C   0  0  0  0  0  0  0  0  0  0  0  0
    0.0000    0.0000    0.0000 N   0  0  0  0  0  0  0  0  0  0  0  0
    0.0000    0.0000    0.0000 C   0  0  0  0  0  0  0  0  0  0  0  0
    0.0000    0.0000    0.0000 C   0  0  0  0  0  0  0  0  0  0  0  0
    0.0000    0.0000    0.0000 C   0  0  0  0  0  0  0  0  0  0  0  0
    0.0000    0.0000    0.0000 C   0  0  0  0  0  0  0  0  0  0  0  0
    0.0000    0.0000    0.0000 C   0  0  0  0  0  0  0  0  0  0  0  0
    0.0000    0.0000    0.0000 C   0  0  0  0  0  0  0  0  0  0  0  0
    0.0000    0.0000    0.0000 C   0  0  0  0  0  0  0  0  0  0  0  0
    0.0000    0.0000    0.0000 O   0  0  0  0  0  0  0  0  0  0  0  0
    0.0000    0.0000    0.0000 C   0  0  0  0  0  0  0  0  0  0  0  0
    0.0000    0.0000    0.0000 C   0  0  0  0  0  0  0  0  0  0  0  0
    0.0000    0.0000    0.0000 N   0  0  0  0  0  0  0  0  0  0  0  0
    0.0000    0.0000    0.0000 C   0  0  0  0  0  0  0  0  0  0  0  0
    0.0000    0.0000    0.0000 O   0  0  0  0  0  0  0  0  0  0  0  0
    0.0000    0.0000    0.0000 C   0  0  0  0  0  0  0  0  0  0  0  0
    0.0000    0.0000    0.0000 N   0  0  0  0  0  0  0  0  0  0  0  0
    0.0000    0.0000    0.0000 C   0  0  0  0  0  0  0  0  0  0  0  0
    0.0000    0.0000    0.0000 O   0  0  0  0  0  0  0  0  0  0  0  0
    0.0000    0.0000    0.0000 C   0  0  0  0  0  0  0  0  0  0  0  0
    0.0000    0.0000    0.0000 C   0  0  0  0  0  0  0  0  0  0  0  0
    0.0000    0.0000    0.0000 C   0  0  0  0  0  0  0  0  0  0  0  0
    0.0000    0.0000    0.0000 C   0  0  0  0  0  0  0  0  0  0  0  0
    0.0000    0.0000    0.0000 C   0  0  0  0  0  0  0  0  0  0  0  0
    0.0000    0.0000    0.0000 C   0  0  0  0  0  0  0  0  0  0  0  0
    0.0000    0.0000    0.0000 O   0  0  0  0  0  0  0  0  0  0  0  0
    0.0000    0.0000    0.0000 P   0  0  0  0  0  0  0  0  0  0  0  0
    0.0000    0.0000    0.0000 O   0  0  0  0  0  0  0  0  0  0  0  0
    0.0000    0.0000    0.0000 O   0  0  0  0  0  0  0  0  0  0  0  0
    0.0000    0.0000    0.0000 O   0  0  0  0  0  0  0  0  0  0  0  0
    0.0000    0.0000    0.0000 C   0  0  0  0  0  0  0  0  0  0  0  0
    0.0000    0.0000    0.0000 C   0  0  0  0  0  0  0  0  0  0  0  0
    0.0000    0.0000    0.0000 N   0  0  0  0  0  0  0  0  0  0  0  0
    0.0000    0.0000    0.0000 C   0  0  0  0  0  0  0  0  0  0  0  0
    0.0000    0.0000    0.0000 O   0  0  0  0  0  0  0  0  0  0  0  0
    0.0000    0.0000    0.0000 C   0  0  0  0  0  0  0  0  0  0  0  0
    0.0000    0.0000    0.0000 C   0  0  0  0  0  0  0  0  0  0  0  0
    0.0000    0.0000    0.0000 C   0  0  0  0  0  0  0  0  0  0  0  0
    0.0000    0.0000    0.0000 C   0  0  0  0  0  0  0  0  0  0  0  0
  1  2  1  0
  2  3  1  0
  3  4  1  0
  4  5  1  0
  5  6  1  0
  6  7  1  0
  7  8  1  0
  8  9  1  0
  9 10  1  0
 10 11  1  0
 11 12  1  0
 12 13  1  0
  7 14  1  0
 14 15  2  0
 14 16  1  0
 16 17  1  0
 16 18  1  0
 18 19  1  0
 19 20  2  0
 19 21  1  0
 21 22  1  0
 22 23  1  0
 23 24  2  0
 23 25  1  0
 25 26  1  0
 26 27  1  0
 27 28  2  0
 28 29  1  0
 29 30  2  0
 30 31  1  0
 31 32  1  0
 32 33  2  0
 32 34  1  0
 32 35  1  0
 30 36  1  0
 36 37  2  0
 25 38  1  0
 38 39  1  0
 39 40  2  0
 39 41  1  0
 21 42  1  0
 42 43  1  0
 42 44  1  0
 37 27  1  0
M  END
>  <pIC50>  (82) 
5.22

>  <ChEMBL_ID>  (82) 
CHEMBL421929

>  <document_journal>  (82) 
J. Med. Chem.

>  <bao_endpoint>  (82) 
BAO_0000190

>  <potential_duplicate>  (82) 
False

>  <uo_units>  (82) 
UO_0000065

>  <canonical_smiles>  (82) 
CCCCCCN(CCCCCC)C(=O)[C@H](C)NC(=O)[C@@H](NC(=O)[C@H](Cc1ccc(OP(=O)(O)O)cc1)NC(=O)C)C(C)C

>  <parent_molecule_chembl_id>  (82) 
CHEMBL421929

>  <assay_type>  (82) 
B

>  <src_id>  (82) 
1

>  <ligand_efficiency>  (82) 
{u'le': u'0.16', u'bei': u'8.15', u'sei': u'2.84', u'lle': u'0.62'}

>  <standard_flag>  (82) 
True

>  <molecule_chembl_id>  (82) 
CHEMBL421929

>  <target_organism>  (82) 
Homo sapiens

>  <standard_units>  (82) 
nM

>  <record_id>  (82) 
262941

>  <document_chembl_id>  (82) 
CHEMBL1131295

>  <bao_format>  (82) 
BAO_0000219

>  <data_validity_description>  (82) 
None

>  <activity_id>  (82) 
1219167

>  <standard_type>  (82) 
IC50

>  <target_chembl_id>  (82) 
CHEMBL1862

>  <data_validity_comment>  (82) 
None

>  <published_value>  (82) 
6

>  <document_year>  (82) 
1998

>  <target_pref_name>  (82) 
Tyrosine-protein kinase ABL

>  <assay_chembl_id>  (82) 
CHEMBL768940

>  <standard_relation>  (82) 
=

>  <assay_description>  (82) 
Binding affinity against abl SH2 domain of Platelet-derived growth factor receptor beta in Sf9 insect cells

>  <published_relation>  (82) 
=

>  <standard_value>  (82) 
6000

>  <qudt_units>  (82) 
http://www.openphacts.org/units/Nanomolar

>  <target_tax_id>  (82) 
9606

>  <bao_label>  (82) 
cell-based format

>  <published_units>  (82) 
uM

>  <pchembl_value>  (82) 
5.22

>  <published_type>  (82) 
IC50

>  <activity_comment>  (82) 
None

$$$$

     RDKit          

 40 41  0  0  0  0  0  0  0  0999 V2000
    0.0000    0.0000    0.0000 C   0  0  0  0  0  0  0  0  0  0  0  0
    0.0000    0.0000    0.0000 C   0  0  0  0  0  0  0  0  0  0  0  0
    0.0000    0.0000    0.0000 C   0  0  0  0  0  0  0  0  0  0  0  0
    0.0000    0.0000    0.0000 C   0  0  0  0  0  0  0  0  0  0  0  0
    0.0000    0.0000    0.0000 N   0  0  0  0  0  0  0  0  0  0  0  0
    0.0000    0.0000    0.0000 C   0  0  0  0  0  0  0  0  0  0  0  0
    0.0000    0.0000    0.0000 O   0  0  0  0  0  0  0  0  0  0  0  0
    0.0000    0.0000    0.0000 C   0  0  0  0  0  0  0  0  0  0  0  0
    0.0000    0.0000    0.0000 C   0  0  0  0  0  0  0  0  0  0  0  0
    0.0000    0.0000    0.0000 C   0  0  0  0  0  0  0  0  0  0  0  0
    0.0000    0.0000    0.0000 C   0  0  0  0  0  0  0  0  0  0  0  0
    0.0000    0.0000    0.0000 C   0  0  0  0  0  0  0  0  0  0  0  0
    0.0000    0.0000    0.0000 C   0  0  0  0  0  0  0  0  0  0  0  0
    0.0000    0.0000    0.0000 O   0  0  0  0  0  0  0  0  0  0  0  0
    0.0000    0.0000    0.0000 P   0  0  0  0  0  0  0  0  0  0  0  0
    0.0000    0.0000    0.0000 O   0  0  0  0  0  0  0  0  0  0  0  0
    0.0000    0.0000    0.0000 O   0  0  0  0  0  0  0  0  0  0  0  0
    0.0000    0.0000    0.0000 O   0  0  0  0  0  0  0  0  0  0  0  0
    0.0000    0.0000    0.0000 C   0  0  0  0  0  0  0  0  0  0  0  0
    0.0000    0.0000    0.0000 C   0  0  0  0  0  0  0  0  0  0  0  0
    0.0000    0.0000    0.0000 N   0  0  0  0  0  0  0  0  0  0  0  0
    0.0000    0.0000    0.0000 C   0  0  0  0  0  0  0  0  0  0  0  0
    0.0000    0.0000    0.0000 O   0  0  0  0  0  0  0  0  0  0  0  0
    0.0000    0.0000    0.0000 C   0  0  0  0  0  0  0  0  0  0  0  0
    0.0000    0.0000    0.0000 C   0  0  0  0  0  0  0  0  0  0  0  0
    0.0000    0.0000    0.0000 O   0  0  0  0  0  0  0  0  0  0  0  0
    0.0000    0.0000    0.0000 N   0  0  0  0  0  0  0  0  0  0  0  0
    0.0000    0.0000    0.0000 C   0  0  0  0  0  0  0  0  0  0  0  0
    0.0000    0.0000    0.0000 C   0  0  0  0  0  0  0  0  0  0  0  0
    0.0000    0.0000    0.0000 C   0  0  0  0  0  0  0  0  0  0  0  0
    0.0000    0.0000    0.0000 O   0  0  0  0  0  0  0  0  0  0  0  0
    0.0000    0.0000    0.0000 N   0  0  0  0  0  0  0  0  0  0  0  0
    0.0000    0.0000    0.0000 C   0  0  0  0  0  0  0  0  0  0  0  0
    0.0000    0.0000    0.0000 C   0  0  0  0  0  0  0  0  0  0  0  0
    0.0000    0.0000    0.0000 C   0  0  0  0  0  0  0  0  0  0  0  0
    0.0000    0.0000    0.0000 C   0  0  0  0  0  0  0  0  0  0  0  0
    0.0000    0.0000    0.0000 C   0  0  0  0  0  0  0  0  0  0  0  0
    0.0000    0.0000    0.0000 C   0  0  0  0  0  0  0  0  0  0  0  0
    0.0000    0.0000    0.0000 C   0  0  0  0  0  0  0  0  0  0  0  0
    0.0000    0.0000    0.0000 C   0  0  0  0  0  0  0  0  0  0  0  0
  1  2  1  0
  2  3  1  0
  2  4  1  0
  4  5  1  0
  5  6  1  0
  6  7  2  0
  6  8  1  0
  8  9  1  0
  9 10  1  0
 10 11  2  0
 11 12  1  0
 12 13  2  0
 13 14  1  0
 14 15  1  0
 15 16  2  0
 15 17  1  0
 15 18  1  0
 13 19  1  0
 19 20  2  0
  8 21  1  0
 21 22  1  0
 22 23  2  0
 22 24  1  0
  4 25  1  0
 25 26  2  0
 25 27  1  0
 27 28  1  0
 28 29  1  0
 28 30  1  0
 30 31  2  0
 30 32  1  0
 32 33  1  0
 33 34  1  0
 34 35  1  0
 35 36  1  0
 36 37  1  0
 37 38  1  0
 38 39  1  0
 39 40  1  0
 20 10  1  0
 40 35  1  0
M  END
>  <pIC50>  (83) 
4.59

>  <ChEMBL_ID>  (83) 
CHEMBL136289

>  <document_journal>  (83) 
J. Med. Chem.

>  <bao_endpoint>  (83) 
BAO_0000190

>  <potential_duplicate>  (83) 
False

>  <uo_units>  (83) 
UO_0000065

>  <canonical_smiles>  (83) 
CC(C)[C@H](NC(=O)[C@H](Cc1ccc(OP(=O)(O)O)cc1)NC(=O)C)C(=O)N[C@H](C)C(=O)NCCC2CCCCC2

>  <parent_molecule_chembl_id>  (83) 
CHEMBL136289

>  <assay_type>  (83) 
B

>  <src_id>  (83) 
1

>  <ligand_efficiency>  (83) 
{u'le': u'0.16', u'bei': u'7.87', u'sei': u'2.38', u'lle': u'2.1'}

>  <standard_flag>  (83) 
True

>  <molecule_chembl_id>  (83) 
CHEMBL136289

>  <target_organism>  (83) 
Homo sapiens

>  <standard_units>  (83) 
nM

>  <record_id>  (83) 
262957

>  <document_chembl_id>  (83) 
CHEMBL1131295

>  <bao_format>  (83) 
BAO_0000219

>  <data_validity_description>  (83) 
None

>  <activity_id>  (83) 
1221695

>  <standard_type>  (83) 
IC50

>  <target_chembl_id>  (83) 
CHEMBL1862

>  <data_validity_comment>  (83) 
None

>  <published_value>  (83) 
26

>  <document_year>  (83) 
1998

>  <target_pref_name>  (83) 
Tyrosine-protein kinase ABL

>  <assay_chembl_id>  (83) 
CHEMBL768940

>  <standard_relation>  (83) 
=

>  <assay_description>  (83) 
Binding affinity against abl SH2 domain of Platelet-derived growth factor receptor beta in Sf9 insect cells

>  <published_relation>  (83) 
=

>  <standard_value>  (83) 
26000

>  <qudt_units>  (83) 
http://www.openphacts.org/units/Nanomolar

>  <target_tax_id>  (83) 
9606

>  <bao_label>  (83) 
cell-based format

>  <published_units>  (83) 
uM

>  <pchembl_value>  (83) 
4.59

>  <published_type>  (83) 
IC50

>  <activity_comment>  (83) 
None

$$$$

     RDKit          

 40 41  0  0  0  0  0  0  0  0999 V2000
    0.0000    0.0000    0.0000 C   0  0  0  0  0  0  0  0  0  0  0  0
    0.0000    0.0000    0.0000 C   0  0  0  0  0  0  0  0  0  0  0  0
    0.0000    0.0000    0.0000 C   0  0  0  0  0  0  0  0  0  0  0  0
    0.0000    0.0000    0.0000 C   0  0  0  0  0  0  0  0  0  0  0  0
    0.0000    0.0000    0.0000 N   0  0  0  0  0  0  0  0  0  0  0  0
    0.0000    0.0000    0.0000 C   0  0  0  0  0  0  0  0  0  0  0  0
    0.0000    0.0000    0.0000 O   0  0  0  0  0  0  0  0  0  0  0  0
    0.0000    0.0000    0.0000 C   0  0  0  0  0  0  0  0  0  0  0  0
    0.0000    0.0000    0.0000 C   0  0  0  0  0  0  0  0  0  0  0  0
    0.0000    0.0000    0.0000 C   0  0  0  0  0  0  0  0  0  0  0  0
    0.0000    0.0000    0.0000 C   0  0  0  0  0  0  0  0  0  0  0  0
    0.0000    0.0000    0.0000 C   0  0  0  0  0  0  0  0  0  0  0  0
    0.0000    0.0000    0.0000 C   0  0  0  0  0  0  0  0  0  0  0  0
    0.0000    0.0000    0.0000 O   0  0  0  0  0  0  0  0  0  0  0  0
    0.0000    0.0000    0.0000 P   0  0  0  0  0  0  0  0  0  0  0  0
    0.0000    0.0000    0.0000 O   0  0  0  0  0  0  0  0  0  0  0  0
    0.0000    0.0000    0.0000 O   0  0  0  0  0  0  0  0  0  0  0  0
    0.0000    0.0000    0.0000 O   0  0  0  0  0  0  0  0  0  0  0  0
    0.0000    0.0000    0.0000 C   0  0  0  0  0  0  0  0  0  0  0  0
    0.0000    0.0000    0.0000 C   0  0  0  0  0  0  0  0  0  0  0  0
    0.0000    0.0000    0.0000 N   0  0  0  0  0  0  0  0  0  0  0  0
    0.0000    0.0000    0.0000 C   0  0  0  0  0  0  0  0  0  0  0  0
    0.0000    0.0000    0.0000 O   0  0  0  0  0  0  0  0  0  0  0  0
    0.0000    0.0000    0.0000 C   0  0  0  0  0  0  0  0  0  0  0  0
    0.0000    0.0000    0.0000 C   0  0  0  0  0  0  0  0  0  0  0  0
    0.0000    0.0000    0.0000 O   0  0  0  0  0  0  0  0  0  0  0  0
    0.0000    0.0000    0.0000 N   0  0  0  0  0  0  0  0  0  0  0  0
    0.0000    0.0000    0.0000 C   0  0  0  0  0  0  0  0  0  0  0  0
    0.0000    0.0000    0.0000 C   0  0  0  0  0  0  0  0  0  0  0  0
    0.0000    0.0000    0.0000 C   0  0  0  0  0  0  0  0  0  0  0  0
    0.0000    0.0000    0.0000 O   0  0  0  0  0  0  0  0  0  0  0  0
    0.0000    0.0000    0.0000 N   0  0  0  0  0  0  0  0  0  0  0  0
    0.0000    0.0000    0.0000 C   0  0  0  0  0  0  0  0  0  0  0  0
    0.0000    0.0000    0.0000 C   0  0  0  0  0  0  0  0  0  0  0  0
    0.0000    0.0000    0.0000 C   0  0  0  0  0  0  0  0  0  0  0  0
    0.0000    0.0000    0.0000 C   0  0  0  0  0  0  0  0  0  0  0  0
    0.0000    0.0000    0.0000 C   0  0  0  0  0  0  0  0  0  0  0  0
    0.0000    0.0000    0.0000 C   0  0  0  0  0  0  0  0  0  0  0  0
    0.0000    0.0000    0.0000 C   0  0  0  0  0  0  0  0  0  0  0  0
    0.0000    0.0000    0.0000 C   0  0  0  0  0  0  0  0  0  0  0  0
  1  2  1  0
  2  3  1  0
  2  4  1  0
  4  5  1  0
  5  6  1  0
  6  7  2  0
  6  8  1  0
  8  9  1  0
  9 10  1  0
 10 11  2  0
 11 12  1  0
 12 13  2  0
 13 14  1  0
 14 15  1  0
 15 16  2  0
 15 17  1  0
 15 18  1  0
 13 19  1  0
 19 20  2  0
  8 21  1  0
 21 22  1  0
 22 23  2  0
 22 24  1  0
  4 25  1  0
 25 26  2  0
 25 27  1  0
 27 28  1  0
 28 29  1  0
 28 30  1  0
 30 31  2  0
 30 32  1  0
 32 33  1  0
 33 34  1  0
 34 35  1  0
 35 36  2  0
 36 37  1  0
 37 38  2  0
 38 39  1  0
 39 40  2  0
 20 10  1  0
 40 35  1  0
M  END
>  <pIC50>  (84) 
4.34

>  <ChEMBL_ID>  (84) 
CHEMBL539942

>  <document_journal>  (84) 
J. Med. Chem.

>  <bao_endpoint>  (84) 
BAO_0000190

>  <potential_duplicate>  (84) 
False

>  <uo_units>  (84) 
UO_0000065

>  <canonical_smiles>  (84) 
CC(C)[C@H](NC(=O)[C@H](Cc1ccc(OP(=O)(O)O)cc1)NC(=O)C)C(=O)N[C@H](C)C(=O)NCCc2ccccc2

>  <parent_molecule_chembl_id>  (84) 
CHEMBL539942

>  <assay_type>  (84) 
B

>  <src_id>  (84) 
1

>  <ligand_efficiency>  (84) 
{u'le': u'0.15', u'bei': u'7.52', u'sei': u'2.25', u'lle': u'2.53'}

>  <standard_flag>  (84) 
True

>  <molecule_chembl_id>  (84) 
CHEMBL539942

>  <target_organism>  (84) 
Homo sapiens

>  <standard_units>  (84) 
nM

>  <record_id>  (84) 
262959

>  <document_chembl_id>  (84) 
CHEMBL1131295

>  <bao_format>  (84) 
BAO_0000219

>  <data_validity_description>  (84) 
None

>  <activity_id>  (84) 
1224379

>  <standard_type>  (84) 
IC50

>  <target_chembl_id>  (84) 
CHEMBL1862

>  <data_validity_comment>  (84) 
None

>  <published_value>  (84) 
46.2

>  <document_year>  (84) 
1998

>  <target_pref_name>  (84) 
Tyrosine-protein kinase ABL

>  <assay_chembl_id>  (84) 
CHEMBL768940

>  <standard_relation>  (84) 
=

>  <assay_description>  (84) 
Binding affinity against abl SH2 domain of Platelet-derived growth factor receptor beta in Sf9 insect cells

>  <published_relation>  (84) 
=

>  <standard_value>  (84) 
46200

>  <qudt_units>  (84) 
http://www.openphacts.org/units/Nanomolar

>  <target_tax_id>  (84) 
9606

>  <bao_label>  (84) 
cell-based format

>  <published_units>  (84) 
uM

>  <pchembl_value>  (84) 
4.34

>  <published_type>  (84) 
IC50

>  <activity_comment>  (84) 
None

$$$$

     RDKit          

 29 32  0  0  0  0  0  0  0  0999 V2000
    0.0000    0.0000    0.0000 C   0  0  0  0  0  0  0  0  0  0  0  0
    0.0000    0.0000    0.0000 C   0  0  0  0  0  0  0  0  0  0  0  0
    0.0000    0.0000    0.0000 C   0  0  0  0  0  0  0  0  0  0  0  0
    0.0000    0.0000    0.0000 C   0  0  0  0  0  0  0  0  0  0  0  0
    0.0000    0.0000    0.0000 C   0  0  0  0  0  0  0  0  0  0  0  0
    0.0000    0.0000    0.0000 N   0  0  0  0  0  0  0  0  0  0  0  0
    0.0000    0.0000    0.0000 C   0  0  0  0  0  0  0  0  0  0  0  0
    0.0000    0.0000    0.0000 O   0  0  0  0  0  0  0  0  0  0  0  0
    0.0000    0.0000    0.0000 N   0  0  0  0  0  0  0  0  0  0  0  0
    0.0000    0.0000    0.0000 C   0  0  0  0  0  0  0  0  0  0  0  0
    0.0000    0.0000    0.0000 C   0  0  0  0  0  0  0  0  0  0  0  0
    0.0000    0.0000    0.0000 C   0  0  0  0  0  0  0  0  0  0  0  0
    0.0000    0.0000    0.0000 C   0  0  0  0  0  0  0  0  0  0  0  0
    0.0000    0.0000    0.0000 C   0  0  0  0  0  0  0  0  0  0  0  0
    0.0000    0.0000    0.0000 C   0  0  0  0  0  0  0  0  0  0  0  0
    0.0000    0.0000    0.0000 C   0  0  0  0  0  0  0  0  0  0  0  0
    0.0000    0.0000    0.0000 N   0  0  0  0  0  0  0  0  0  0  0  0
    0.0000    0.0000    0.0000 C   0  0  0  0  0  0  0  0  0  0  0  0
    0.0000    0.0000    0.0000 N   0  0  0  0  0  0  0  0  0  0  0  0
    0.0000    0.0000    0.0000 C   0  0  0  0  0  0  0  0  0  0  0  0
    0.0000    0.0000    0.0000 C   0  0  0  0  0  0  0  0  0  0  0  0
    0.0000    0.0000    0.0000 C   0  0  0  0  0  0  0  0  0  0  0  0
    0.0000    0.0000    0.0000 N   0  0  0  0  0  0  0  0  0  0  0  0
    0.0000    0.0000    0.0000 C   0  0  0  0  0  0  0  0  0  0  0  0
    0.0000    0.0000    0.0000 C   0  0  0  0  0  0  0  0  0  0  0  0
    0.0000    0.0000    0.0000 C   0  0  0  0  0  0  0  0  0  0  0  0
    0.0000    0.0000    0.0000 C   0  0  0  0  0  0  0  0  0  0  0  0
    0.0000    0.0000    0.0000 N   0  0  0  0  0  0  0  0  0  0  0  0
    0.0000    0.0000    0.0000 C   0  0  0  0  0  0  0  0  0  0  0  0
  1  2  1  0
  2  3  2  0
  3  4  1  0
  4  5  2  0
  5  6  1  0
  6  7  1  0
  7  8  2  0
  7  9  1  0
  9 10  1  0
 10 11  1  0
 11 12  1  0
 12 13  1  0
 13 14  1  0
  5 15  1  0
 15 16  2  0
 16 17  1  0
 17 18  1  0
 18 19  2  0
 19 20  1  0
 20 21  2  0
 21 22  1  0
 22 23  2  0
 22 24  1  0
 24 25  2  0
 25 26  1  0
 26 27  2  0
 27 28  1  0
 28 29  2  0
 16  2  1  0
 14  9  1  0
 23 18  1  0
 29 24  1  0
M  END
>  <pIC50>  (85) 
6.03

>  <ChEMBL_ID>  (85) 
CHEMBL185775

>  <document_journal>  (85) 
Bioorg. Med. Chem. Lett.

>  <bao_endpoint>  (85) 
BAO_0000190

>  <potential_duplicate>  (85) 
False

>  <uo_units>  (85) 
UO_0000065

>  <canonical_smiles>  (85) 
Cc1ccc(NC(=O)N2CCCCC2)cc1Nc3nccc(n3)c4cccnc4

>  <parent_molecule_chembl_id>  (85) 
CHEMBL185775

>  <assay_type>  (85) 
B

>  <src_id>  (85) 
1

>  <ligand_efficiency>  (85) 
{u'le': u'0.28', u'bei': u'15.53', u'sei': u'7.26', u'lle': u'2.39'}

>  <standard_flag>  (85) 
True

>  <molecule_chembl_id>  (85) 
CHEMBL185775

>  <target_organism>  (85) 
Homo sapiens

>  <standard_units>  (85) 
nM

>  <record_id>  (85) 
377453

>  <document_chembl_id>  (85) 
CHEMBL1138649

>  <bao_format>  (85) 
BAO_0000357

>  <data_validity_description>  (85) 
None

>  <activity_id>  (85) 
1460507

>  <standard_type>  (85) 
IC50

>  <target_chembl_id>  (85) 
CHEMBL1862

>  <data_validity_comment>  (85) 
None

>  <published_value>  (85) 
930

>  <document_year>  (85) 
2004

>  <target_pref_name>  (85) 
Tyrosine-protein kinase ABL

>  <assay_chembl_id>  (85) 
CHEMBL831639

>  <standard_relation>  (85) 
=

>  <assay_description>  (85) 
Inhibitory concentration required to inhibit Abl tyrosine kinase

>  <published_relation>  (85) 
=

>  <standard_value>  (85) 
930

>  <qudt_units>  (85) 
http://www.openphacts.org/units/Nanomolar

>  <target_tax_id>  (85) 
9606

>  <bao_label>  (85) 
single protein format

>  <published_units>  (85) 
nM

>  <pchembl_value>  (85) 
6.03

>  <published_type>  (85) 
IC50

>  <activity_comment>  (85) 
None

$$$$

     RDKit          

 31 34  0  0  0  0  0  0  0  0999 V2000
    0.0000    0.0000    0.0000 C   0  0  0  0  0  0  0  0  0  0  0  0
    0.0000    0.0000    0.0000 C   0  0  0  0  0  0  0  0  0  0  0  0
    0.0000    0.0000    0.0000 C   0  0  0  0  0  0  0  0  0  0  0  0
    0.0000    0.0000    0.0000 C   0  0  0  0  0  0  0  0  0  0  0  0
    0.0000    0.0000    0.0000 C   0  0  0  0  0  0  0  0  0  0  0  0
    0.0000    0.0000    0.0000 N   0  0  0  0  0  0  0  0  0  0  0  0
    0.0000    0.0000    0.0000 C   0  0  0  0  0  0  0  0  0  0  0  0
    0.0000    0.0000    0.0000 O   0  0  0  0  0  0  0  0  0  0  0  0
    0.0000    0.0000    0.0000 N   0  0  0  0  0  0  0  0  0  0  0  0
    0.0000    0.0000    0.0000 C   0  0  0  0  0  0  0  0  0  0  0  0
    0.0000    0.0000    0.0000 C   0  0  0  0  0  0  0  0  0  0  0  0
    0.0000    0.0000    0.0000 C   0  0  0  0  0  0  0  0  0  0  0  0
    0.0000    0.0000    0.0000 C   0  0  0  0  0  0  0  0  0  0  0  0
    0.0000    0.0000    0.0000 C   0  0  0  0  0  0  0  0  0  0  0  0
    0.0000    0.0000    0.0000 Cl  0  0  0  0  0  0  0  0  0  0  0  0
    0.0000    0.0000    0.0000 C   0  0  0  0  0  0  0  0  0  0  0  0
    0.0000    0.0000    0.0000 C   0  0  0  0  0  0  0  0  0  0  0  0
    0.0000    0.0000    0.0000 C   0  0  0  0  0  0  0  0  0  0  0  0
    0.0000    0.0000    0.0000 N   0  0  0  0  0  0  0  0  0  0  0  0
    0.0000    0.0000    0.0000 C   0  0  0  0  0  0  0  0  0  0  0  0
    0.0000    0.0000    0.0000 N   0  0  0  0  0  0  0  0  0  0  0  0
    0.0000    0.0000    0.0000 C   0  0  0  0  0  0  0  0  0  0  0  0
    0.0000    0.0000    0.0000 C   0  0  0  0  0  0  0  0  0  0  0  0
    0.0000    0.0000    0.0000 C   0  0  0  0  0  0  0  0  0  0  0  0
    0.0000    0.0000    0.0000 N   0  0  0  0  0  0  0  0  0  0  0  0
    0.0000    0.0000    0.0000 C   0  0  0  0  0  0  0  0  0  0  0  0
    0.0000    0.0000    0.0000 C   0  0  0  0  0  0  0  0  0  0  0  0
    0.0000    0.0000    0.0000 C   0  0  0  0  0  0  0  0  0  0  0  0
    0.0000    0.0000    0.0000 C   0  0  0  0  0  0  0  0  0  0  0  0
    0.0000    0.0000    0.0000 N   0  0  0  0  0  0  0  0  0  0  0  0
    0.0000    0.0000    0.0000 C   0  0  0  0  0  0  0  0  0  0  0  0
  1  2  1  0
  2  3  2  0
  3  4  1  0
  4  5  2  0
  5  6  1  0
  6  7  1  0
  7  8  2  0
  7  9  1  0
  9 10  1  0
 10 11  2  0
 11 12  1  0
 12 13  2  0
 13 14  1  0
 14 15  1  0
 14 16  2  0
  5 17  1  0
 17 18  2  0
 18 19  1  0
 19 20  1  0
 20 21  2  0
 21 22  1  0
 22 23  2  0
 23 24  1  0
 24 25  2  0
 24 26  1  0
 26 27  2  0
 27 28  1  0
 28 29  2  0
 29 30  1  0
 30 31  2  0
 18  2  1  0
 16 10  1  0
 25 20  1  0
 31 26  1  0
M  END
>  <pIC50>  (86) 
6.76

>  <ChEMBL_ID>  (86) 
CHEMBL186652

>  <document_journal>  (86) 
Bioorg. Med. Chem. Lett.

>  <bao_endpoint>  (86) 
BAO_0000190

>  <potential_duplicate>  (86) 
False

>  <uo_units>  (86) 
UO_0000065

>  <canonical_smiles>  (86) 
Cc1ccc(NC(=O)Nc2cccc(Cl)c2)cc1Nc3nccc(n3)c4cccnc4

>  <parent_molecule_chembl_id>  (86) 
CHEMBL186652

>  <assay_type>  (86) 
B

>  <src_id>  (86) 
1

>  <ligand_efficiency>  (86) 
{u'le': u'0.3', u'bei': u'15.68', u'sei': u'7.36', u'lle': u'2'}

>  <standard_flag>  (86) 
True

>  <molecule_chembl_id>  (86) 
CHEMBL186652

>  <target_organism>  (86) 
Homo sapiens

>  <standard_units>  (86) 
nM

>  <record_id>  (86) 
377655

>  <document_chembl_id>  (86) 
CHEMBL1138649

>  <bao_format>  (86) 
BAO_0000357

>  <data_validity_description>  (86) 
None

>  <activity_id>  (86) 
1460649

>  <standard_type>  (86) 
IC50

>  <target_chembl_id>  (86) 
CHEMBL1862

>  <data_validity_comment>  (86) 
None

>  <published_value>  (86) 
175

>  <document_year>  (86) 
2004

>  <target_pref_name>  (86) 
Tyrosine-protein kinase ABL

>  <assay_chembl_id>  (86) 
CHEMBL831639

>  <standard_relation>  (86) 
=

>  <assay_description>  (86) 
Inhibitory concentration required to inhibit Abl tyrosine kinase

>  <published_relation>  (86) 
=

>  <standard_value>  (86) 
175

>  <qudt_units>  (86) 
http://www.openphacts.org/units/Nanomolar

>  <target_tax_id>  (86) 
9606

>  <bao_label>  (86) 
single protein format

>  <published_units>  (86) 
nM

>  <pchembl_value>  (86) 
6.76

>  <published_type>  (86) 
IC50

>  <activity_comment>  (86) 
None

$$$$

     RDKit          

 30 33  0  0  0  0  0  0  0  0999 V2000
    0.0000    0.0000    0.0000 C   0  0  0  0  0  0  0  0  0  0  0  0
    0.0000    0.0000    0.0000 C   0  0  0  0  0  0  0  0  0  0  0  0
    0.0000    0.0000    0.0000 C   0  0  0  0  0  0  0  0  0  0  0  0
    0.0000    0.0000    0.0000 C   0  0  0  0  0  0  0  0  0  0  0  0
    0.0000    0.0000    0.0000 C   0  0  0  0  0  0  0  0  0  0  0  0
    0.0000    0.0000    0.0000 N   0  0  0  0  0  0  0  0  0  0  0  0
    0.0000    0.0000    0.0000 C   0  0  0  0  0  0  0  0  0  0  0  0
    0.0000    0.0000    0.0000 O   0  0  0  0  0  0  0  0  0  0  0  0
    0.0000    0.0000    0.0000 N   0  0  0  0  0  0  0  0  0  0  0  0
    0.0000    0.0000    0.0000 C   0  0  0  0  0  0  0  0  0  0  0  0
    0.0000    0.0000    0.0000 C   0  0  0  0  0  0  0  0  0  0  0  0
    0.0000    0.0000    0.0000 C   0  0  0  0  0  0  0  0  0  0  0  0
    0.0000    0.0000    0.0000 C   0  0  0  0  0  0  0  0  0  0  0  0
    0.0000    0.0000    0.0000 N   0  0  0  0  0  0  0  0  0  0  0  0
    0.0000    0.0000    0.0000 C   0  0  0  0  0  0  0  0  0  0  0  0
    0.0000    0.0000    0.0000 C   0  0  0  0  0  0  0  0  0  0  0  0
    0.0000    0.0000    0.0000 C   0  0  0  0  0  0  0  0  0  0  0  0
    0.0000    0.0000    0.0000 N   0  0  0  0  0  0  0  0  0  0  0  0
    0.0000    0.0000    0.0000 C   0  0  0  0  0  0  0  0  0  0  0  0
    0.0000    0.0000    0.0000 N   0  0  0  0  0  0  0  0  0  0  0  0
    0.0000    0.0000    0.0000 C   0  0  0  0  0  0  0  0  0  0  0  0
    0.0000    0.0000    0.0000 C   0  0  0  0  0  0  0  0  0  0  0  0
    0.0000    0.0000    0.0000 C   0  0  0  0  0  0  0  0  0  0  0  0
    0.0000    0.0000    0.0000 N   0  0  0  0  0  0  0  0  0  0  0  0
    0.0000    0.0000    0.0000 C   0  0  0  0  0  0  0  0  0  0  0  0
    0.0000    0.0000    0.0000 C   0  0  0  0  0  0  0  0  0  0  0  0
    0.0000    0.0000    0.0000 C   0  0  0  0  0  0  0  0  0  0  0  0
    0.0000    0.0000    0.0000 C   0  0  0  0  0  0  0  0  0  0  0  0
    0.0000    0.0000    0.0000 N   0  0  0  0  0  0  0  0  0  0  0  0
    0.0000    0.0000    0.0000 C   0  0  0  0  0  0  0  0  0  0  0  0
  1  2  1  0
  2  3  2  0
  3  4  1  0
  4  5  2  0
  5  6  1  0
  6  7  1  0
  7  8  2  0
  7  9  1  0
  9 10  1  0
 10 11  2  0
 11 12  1  0
 12 13  2  0
 13 14  1  0
 14 15  2  0
  5 16  1  0
 16 17  2  0
 17 18  1  0
 18 19  1  0
 19 20  2  0
 20 21  1  0
 21 22  2  0
 22 23  1  0
 23 24  2  0
 23 25  1  0
 25 26  2  0
 26 27  1  0
 27 28  2  0
 28 29  1  0
 29 30  2  0
 17  2  1  0
 15 10  1  0
 24 19  1  0
 30 25  1  0
M  END
>  <pIC50>  (87) 
6.0

>  <ChEMBL_ID>  (87) 
CHEMBL187080

>  <document_journal>  (87) 
Bioorg. Med. Chem. Lett.

>  <bao_endpoint>  (87) 
BAO_0000190

>  <potential_duplicate>  (87) 
False

>  <uo_units>  (87) 
UO_0000065

>  <canonical_smiles>  (87) 
Cc1ccc(NC(=O)Nc2cccnc2)cc1Nc3nccc(n3)c4cccnc4

>  <parent_molecule_chembl_id>  (87) 
CHEMBL187080

>  <assay_type>  (87) 
B

>  <src_id>  (87) 
1

>  <ligand_efficiency>  (87) 
{u'le': u'0.27', u'bei': u'15.1', u'sei': u'5.73', u'lle': u'3.05'}

>  <standard_flag>  (87) 
True

>  <molecule_chembl_id>  (87) 
CHEMBL187080

>  <target_organism>  (87) 
Homo sapiens

>  <standard_units>  (87) 
nM

>  <record_id>  (87) 
377656

>  <document_chembl_id>  (87) 
CHEMBL1138649

>  <bao_format>  (87) 
BAO_0000357

>  <data_validity_description>  (87) 
None

>  <activity_id>  (87) 
1460654

>  <standard_type>  (87) 
IC50

>  <target_chembl_id>  (87) 
CHEMBL1862

>  <data_validity_comment>  (87) 
None

>  <published_value>  (87) 
1000

>  <document_year>  (87) 
2004

>  <target_pref_name>  (87) 
Tyrosine-protein kinase ABL

>  <assay_chembl_id>  (87) 
CHEMBL831639

>  <standard_relation>  (87) 
=

>  <assay_description>  (87) 
Inhibitory concentration required to inhibit Abl tyrosine kinase

>  <published_relation>  (87) 
=

>  <standard_value>  (87) 
1000

>  <qudt_units>  (87) 
http://www.openphacts.org/units/Nanomolar

>  <target_tax_id>  (87) 
9606

>  <bao_label>  (87) 
single protein format

>  <published_units>  (87) 
nM

>  <pchembl_value>  (87) 
6

>  <published_type>  (87) 
IC50

>  <activity_comment>  (87) 
None

$$$$

     RDKit          

 33 36  0  0  0  0  0  0  0  0999 V2000
    0.0000    0.0000    0.0000 C   0  0  0  0  0  0  0  0  0  0  0  0
    0.0000    0.0000    0.0000 N   0  0  0  0  0  0  0  0  0  0  0  0
    0.0000    0.0000    0.0000 C   0  0  0  0  0  0  0  0  0  0  0  0
    0.0000    0.0000    0.0000 C   0  0  0  0  0  0  0  0  0  0  0  0
    0.0000    0.0000    0.0000 C   0  0  0  0  0  0  0  0  0  0  0  0
    0.0000    0.0000    0.0000 C   0  0  0  0  0  0  0  0  0  0  0  0
    0.0000    0.0000    0.0000 C   0  0  0  0  0  0  0  0  0  0  0  0
    0.0000    0.0000    0.0000 C   0  0  0  0  0  0  0  0  0  0  0  0
    0.0000    0.0000    0.0000 N   0  0  0  0  0  0  0  0  0  0  0  0
    0.0000    0.0000    0.0000 C   0  0  0  0  0  0  0  0  0  0  0  0
    0.0000    0.0000    0.0000 O   0  0  0  0  0  0  0  0  0  0  0  0
    0.0000    0.0000    0.0000 N   0  0  0  0  0  0  0  0  0  0  0  0
    0.0000    0.0000    0.0000 C   0  0  0  0  0  0  0  0  0  0  0  0
    0.0000    0.0000    0.0000 C   0  0  0  0  0  0  0  0  0  0  0  0
    0.0000    0.0000    0.0000 C   0  0  0  0  0  0  0  0  0  0  0  0
    0.0000    0.0000    0.0000 C   0  0  0  0  0  0  0  0  0  0  0  0
    0.0000    0.0000    0.0000 C   0  0  0  0  0  0  0  0  0  0  0  0
    0.0000    0.0000    0.0000 C   0  0  0  0  0  0  0  0  0  0  0  0
    0.0000    0.0000    0.0000 N   0  0  0  0  0  0  0  0  0  0  0  0
    0.0000    0.0000    0.0000 C   0  0  0  0  0  0  0  0  0  0  0  0
    0.0000    0.0000    0.0000 N   0  0  0  0  0  0  0  0  0  0  0  0
    0.0000    0.0000    0.0000 C   0  0  0  0  0  0  0  0  0  0  0  0
    0.0000    0.0000    0.0000 C   0  0  0  0  0  0  0  0  0  0  0  0
    0.0000    0.0000    0.0000 C   0  0  0  0  0  0  0  0  0  0  0  0
    0.0000    0.0000    0.0000 N   0  0  0  0  0  0  0  0  0  0  0  0
    0.0000    0.0000    0.0000 C   0  0  0  0  0  0  0  0  0  0  0  0
    0.0000    0.0000    0.0000 C   0  0  0  0  0  0  0  0  0  0  0  0
    0.0000    0.0000    0.0000 C   0  0  0  0  0  0  0  0  0  0  0  0
    0.0000    0.0000    0.0000 C   0  0  0  0  0  0  0  0  0  0  0  0
    0.0000    0.0000    0.0000 N   0  0  0  0  0  0  0  0  0  0  0  0
    0.0000    0.0000    0.0000 C   0  0  0  0  0  0  0  0  0  0  0  0
    0.0000    0.0000    0.0000 C   0  0  0  0  0  0  0  0  0  0  0  0
    0.0000    0.0000    0.0000 C   0  0  0  0  0  0  0  0  0  0  0  0
  1  2  1  0
  2  3  1  0
  2  4  1  0
  4  5  2  0
  5  6  1  0
  6  7  2  0
  7  8  1  0
  8  9  1  0
  9 10  1  0
 10 11  2  0
 10 12  1  0
 12 13  1  0
 13 14  2  0
 14 15  1  0
 15 16  2  0
 16 17  1  0
 16 18  1  0
 18 19  1  0
 19 20  1  0
 20 21  2  0
 21 22  1  0
 22 23  2  0
 23 24  1  0
 24 25  2  0
 24 26  1  0
 26 27  2  0
 27 28  1  0
 28 29  2  0
 29 30  1  0
 30 31  2  0
 18 32  2  0
  8 33  2  0
 33  4  1  0
 32 13  1  0
 25 20  1  0
 31 26  1  0
M  END
>  <pIC50>  (88) 
7.25

>  <ChEMBL_ID>  (88) 
CHEMBL434335

>  <document_journal>  (88) 
Bioorg. Med. Chem. Lett.

>  <bao_endpoint>  (88) 
BAO_0000190

>  <potential_duplicate>  (88) 
False

>  <uo_units>  (88) 
UO_0000065

>  <canonical_smiles>  (88) 
CN(C)c1cccc(NC(=O)Nc2ccc(C)c(Nc3nccc(n3)c4cccnc4)c2)c1

>  <parent_molecule_chembl_id>  (88) 
CHEMBL434335

>  <assay_type>  (88) 
B

>  <src_id>  (88) 
1

>  <ligand_efficiency>  (88) 
{u'le': u'0.3', u'bei': u'16.5', u'sei': u'7.63', u'lle': u'2.99'}

>  <standard_flag>  (88) 
True

>  <molecule_chembl_id>  (88) 
CHEMBL434335

>  <target_organism>  (88) 
Homo sapiens

>  <standard_units>  (88) 
nM

>  <record_id>  (88) 
377682

>  <document_chembl_id>  (88) 
CHEMBL1138649

>  <bao_format>  (88) 
BAO_0000357

>  <data_validity_description>  (88) 
None

>  <activity_id>  (88) 
1460657

>  <standard_type>  (88) 
IC50

>  <target_chembl_id>  (88) 
CHEMBL1862

>  <data_validity_comment>  (88) 
None

>  <published_value>  (88) 
56

>  <document_year>  (88) 
2004

>  <target_pref_name>  (88) 
Tyrosine-protein kinase ABL

>  <assay_chembl_id>  (88) 
CHEMBL831639

>  <standard_relation>  (88) 
=

>  <assay_description>  (88) 
Inhibitory concentration required to inhibit Abl tyrosine kinase

>  <published_relation>  (88) 
=

>  <standard_value>  (88) 
56

>  <qudt_units>  (88) 
http://www.openphacts.org/units/Nanomolar

>  <target_tax_id>  (88) 
9606

>  <bao_label>  (88) 
single protein format

>  <published_units>  (88) 
nM

>  <pchembl_value>  (88) 
7.25

>  <published_type>  (88) 
IC50

>  <activity_comment>  (88) 
None

$$$$

     RDKit          

 35 38  0  0  0  0  0  0  0  0999 V2000
    0.0000    0.0000    0.0000 C   0  0  0  0  0  0  0  0  0  0  0  0
    0.0000    0.0000    0.0000 C   0  0  0  0  0  0  0  0  0  0  0  0
    0.0000    0.0000    0.0000 N   0  0  0  0  0  0  0  0  0  0  0  0
    0.0000    0.0000    0.0000 C   0  0  0  0  0  0  0  0  0  0  0  0
    0.0000    0.0000    0.0000 C   0  0  0  0  0  0  0  0  0  0  0  0
    0.0000    0.0000    0.0000 C   0  0  0  0  0  0  0  0  0  0  0  0
    0.0000    0.0000    0.0000 C   0  0  0  0  0  0  0  0  0  0  0  0
    0.0000    0.0000    0.0000 C   0  0  0  0  0  0  0  0  0  0  0  0
    0.0000    0.0000    0.0000 C   0  0  0  0  0  0  0  0  0  0  0  0
    0.0000    0.0000    0.0000 C   0  0  0  0  0  0  0  0  0  0  0  0
    0.0000    0.0000    0.0000 N   0  0  0  0  0  0  0  0  0  0  0  0
    0.0000    0.0000    0.0000 C   0  0  0  0  0  0  0  0  0  0  0  0
    0.0000    0.0000    0.0000 O   0  0  0  0  0  0  0  0  0  0  0  0
    0.0000    0.0000    0.0000 N   0  0  0  0  0  0  0  0  0  0  0  0
    0.0000    0.0000    0.0000 C   0  0  0  0  0  0  0  0  0  0  0  0
    0.0000    0.0000    0.0000 C   0  0  0  0  0  0  0  0  0  0  0  0
    0.0000    0.0000    0.0000 C   0  0  0  0  0  0  0  0  0  0  0  0
    0.0000    0.0000    0.0000 C   0  0  0  0  0  0  0  0  0  0  0  0
    0.0000    0.0000    0.0000 C   0  0  0  0  0  0  0  0  0  0  0  0
    0.0000    0.0000    0.0000 C   0  0  0  0  0  0  0  0  0  0  0  0
    0.0000    0.0000    0.0000 N   0  0  0  0  0  0  0  0  0  0  0  0
    0.0000    0.0000    0.0000 C   0  0  0  0  0  0  0  0  0  0  0  0
    0.0000    0.0000    0.0000 N   0  0  0  0  0  0  0  0  0  0  0  0
    0.0000    0.0000    0.0000 C   0  0  0  0  0  0  0  0  0  0  0  0
    0.0000    0.0000    0.0000 C   0  0  0  0  0  0  0  0  0  0  0  0
    0.0000    0.0000    0.0000 C   0  0  0  0  0  0  0  0  0  0  0  0
    0.0000    0.0000    0.0000 N   0  0  0  0  0  0  0  0  0  0  0  0
    0.0000    0.0000    0.0000 C   0  0  0  0  0  0  0  0  0  0  0  0
    0.0000    0.0000    0.0000 C   0  0  0  0  0  0  0  0  0  0  0  0
    0.0000    0.0000    0.0000 C   0  0  0  0  0  0  0  0  0  0  0  0
    0.0000    0.0000    0.0000 C   0  0  0  0  0  0  0  0  0  0  0  0
    0.0000    0.0000    0.0000 N   0  0  0  0  0  0  0  0  0  0  0  0
    0.0000    0.0000    0.0000 C   0  0  0  0  0  0  0  0  0  0  0  0
    0.0000    0.0000    0.0000 C   0  0  0  0  0  0  0  0  0  0  0  0
    0.0000    0.0000    0.0000 C   0  0  0  0  0  0  0  0  0  0  0  0
  1  2  1  0
  2  3  1  0
  3  4  1  0
  4  5  1  0
  3  6  1  0
  6  7  2  0
  7  8  1  0
  8  9  2  0
  9 10  1  0
 10 11  1  0
 11 12  1  0
 12 13  2  0
 12 14  1  0
 14 15  1  0
 15 16  2  0
 16 17  1  0
 17 18  2  0
 18 19  1  0
 18 20  1  0
 20 21  1  0
 21 22  1  0
 22 23  2  0
 23 24  1  0
 24 25  2  0
 25 26  1  0
 26 27  2  0
 26 28  1  0
 28 29  2  0
 29 30  1  0
 30 31  2  0
 31 32  1  0
 32 33  2  0
 20 34  2  0
 10 35  2  0
 35  6  1  0
 34 15  1  0
 27 22  1  0
 33 28  1  0
M  END
>  <pIC50>  (89) 
6.55

>  <ChEMBL_ID>  (89) 
CHEMBL365673

>  <document_journal>  (89) 
Bioorg. Med. Chem. Lett.

>  <bao_endpoint>  (89) 
BAO_0000190

>  <potential_duplicate>  (89) 
False

>  <uo_units>  (89) 
UO_0000065

>  <canonical_smiles>  (89) 
CCN(CC)c1cccc(NC(=O)Nc2ccc(C)c(Nc3nccc(n3)c4cccnc4)c2)c1

>  <parent_molecule_chembl_id>  (89) 
CHEMBL365673

>  <assay_type>  (89) 
B

>  <src_id>  (89) 
1

>  <ligand_efficiency>  (89) 
{u'le': u'0.26', u'bei': u'14.01', u'sei': u'6.89', u'lle': u'1.59'}

>  <standard_flag>  (89) 
True

>  <molecule_chembl_id>  (89) 
CHEMBL365673

>  <target_organism>  (89) 
Homo sapiens

>  <standard_units>  (89) 
nM

>  <record_id>  (89) 
377708

>  <document_chembl_id>  (89) 
CHEMBL1138649

>  <bao_format>  (89) 
BAO_0000357

>  <data_validity_description>  (89) 
None

>  <activity_id>  (89) 
1460762

>  <standard_type>  (89) 
IC50

>  <target_chembl_id>  (89) 
CHEMBL1862

>  <data_validity_comment>  (89) 
None

>  <published_value>  (89) 
280

>  <document_year>  (89) 
2004

>  <target_pref_name>  (89) 
Tyrosine-protein kinase ABL

>  <assay_chembl_id>  (89) 
CHEMBL831639

>  <standard_relation>  (89) 
=

>  <assay_description>  (89) 
Inhibitory concentration required to inhibit Abl tyrosine kinase

>  <published_relation>  (89) 
=

>  <standard_value>  (89) 
280

>  <qudt_units>  (89) 
http://www.openphacts.org/units/Nanomolar

>  <target_tax_id>  (89) 
9606

>  <bao_label>  (89) 
single protein format

>  <published_units>  (89) 
nM

>  <pchembl_value>  (89) 
6.55

>  <published_type>  (89) 
IC50

>  <activity_comment>  (89) 
None

$$$$

     RDKit          

 35 39  0  0  0  0  0  0  0  0999 V2000
    0.0000    0.0000    0.0000 C   0  0  0  0  0  0  0  0  0  0  0  0
    0.0000    0.0000    0.0000 C   0  0  0  0  0  0  0  0  0  0  0  0
    0.0000    0.0000    0.0000 C   0  0  0  0  0  0  0  0  0  0  0  0
    0.0000    0.0000    0.0000 C   0  0  0  0  0  0  0  0  0  0  0  0
    0.0000    0.0000    0.0000 C   0  0  0  0  0  0  0  0  0  0  0  0
    0.0000    0.0000    0.0000 N   0  0  0  0  0  0  0  0  0  0  0  0
    0.0000    0.0000    0.0000 C   0  0  0  0  0  0  0  0  0  0  0  0
    0.0000    0.0000    0.0000 O   0  0  0  0  0  0  0  0  0  0  0  0
    0.0000    0.0000    0.0000 N   0  0  0  0  0  0  0  0  0  0  0  0
    0.0000    0.0000    0.0000 C   0  0  0  0  0  0  0  0  0  0  0  0
    0.0000    0.0000    0.0000 C   0  0  0  0  0  0  0  0  0  0  0  0
    0.0000    0.0000    0.0000 C   0  0  0  0  0  0  0  0  0  0  0  0
    0.0000    0.0000    0.0000 C   0  0  0  0  0  0  0  0  0  0  0  0
    0.0000    0.0000    0.0000 C   0  0  0  0  0  0  0  0  0  0  0  0
    0.0000    0.0000    0.0000 C   0  0  0  0  0  0  0  0  0  0  0  0
    0.0000    0.0000    0.0000 N   0  0  0  0  0  0  0  0  0  0  0  0
    0.0000    0.0000    0.0000 C   0  0  0  0  0  0  0  0  0  0  0  0
    0.0000    0.0000    0.0000 C   0  0  0  0  0  0  0  0  0  0  0  0
    0.0000    0.0000    0.0000 C   0  0  0  0  0  0  0  0  0  0  0  0
    0.0000    0.0000    0.0000 C   0  0  0  0  0  0  0  0  0  0  0  0
    0.0000    0.0000    0.0000 C   0  0  0  0  0  0  0  0  0  0  0  0
    0.0000    0.0000    0.0000 C   0  0  0  0  0  0  0  0  0  0  0  0
    0.0000    0.0000    0.0000 N   0  0  0  0  0  0  0  0  0  0  0  0
    0.0000    0.0000    0.0000 C   0  0  0  0  0  0  0  0  0  0  0  0
    0.0000    0.0000    0.0000 N   0  0  0  0  0  0  0  0  0  0  0  0
    0.0000    0.0000    0.0000 C   0  0  0  0  0  0  0  0  0  0  0  0
    0.0000    0.0000    0.0000 C   0  0  0  0  0  0  0  0  0  0  0  0
    0.0000    0.0000    0.0000 C   0  0  0  0  0  0  0  0  0  0  0  0
    0.0000    0.0000    0.0000 N   0  0  0  0  0  0  0  0  0  0  0  0
    0.0000    0.0000    0.0000 C   0  0  0  0  0  0  0  0  0  0  0  0
    0.0000    0.0000    0.0000 C   0  0  0  0  0  0  0  0  0  0  0  0
    0.0000    0.0000    0.0000 C   0  0  0  0  0  0  0  0  0  0  0  0
    0.0000    0.0000    0.0000 C   0  0  0  0  0  0  0  0  0  0  0  0
    0.0000    0.0000    0.0000 N   0  0  0  0  0  0  0  0  0  0  0  0
    0.0000    0.0000    0.0000 C   0  0  0  0  0  0  0  0  0  0  0  0
  1  2  1  0
  2  3  2  0
  3  4  1  0
  4  5  2  0
  5  6  1  0
  6  7  1  0
  7  8  2  0
  7  9  1  0
  9 10  1  0
 10 11  2  0
 11 12  1  0
 12 13  2  0
 13 14  1  0
 14 15  2  0
 14 16  1  0
 16 17  1  0
 17 18  1  0
 18 19  1  0
 19 20  1  0
  5 21  1  0
 21 22  2  0
 22 23  1  0
 23 24  1  0
 24 25  2  0
 25 26  1  0
 26 27  2  0
 27 28  1  0
 28 29  2  0
 28 30  1  0
 30 31  2  0
 31 32  1  0
 32 33  2  0
 33 34  1  0
 34 35  2  0
 22  2  1  0
 15 10  1  0
 20 16  1  0
 29 24  1  0
 35 30  1  0
M  END
>  <pIC50>  (90) 
7.28

>  <ChEMBL_ID>  (90) 
CHEMBL184742

>  <document_journal>  (90) 
Bioorg. Med. Chem. Lett.

>  <bao_endpoint>  (90) 
BAO_0000190

>  <potential_duplicate>  (90) 
False

>  <uo_units>  (90) 
UO_0000065

>  <canonical_smiles>  (90) 
Cc1ccc(NC(=O)Nc2cccc(c2)N3CCCC3)cc1Nc4nccc(n4)c5cccnc5

>  <parent_molecule_chembl_id>  (90) 
CHEMBL184742

>  <assay_type>  (90) 
B

>  <src_id>  (90) 
1

>  <ligand_efficiency>  (90) 
{u'le': u'0.28', u'bei': u'15.65', u'sei': u'7.66', u'lle': u'2.56'}

>  <standard_flag>  (90) 
True

>  <molecule_chembl_id>  (90) 
CHEMBL184742

>  <target_organism>  (90) 
Homo sapiens

>  <standard_units>  (90) 
nM

>  <record_id>  (90) 
377370

>  <document_chembl_id>  (90) 
CHEMBL1138649

>  <bao_format>  (90) 
BAO_0000357

>  <data_validity_description>  (90) 
None

>  <activity_id>  (90) 
1460774

>  <standard_type>  (90) 
IC50

>  <target_chembl_id>  (90) 
CHEMBL1862

>  <data_validity_comment>  (90) 
None

>  <published_value>  (90) 
52

>  <document_year>  (90) 
2004

>  <target_pref_name>  (90) 
Tyrosine-protein kinase ABL

>  <assay_chembl_id>  (90) 
CHEMBL831639

>  <standard_relation>  (90) 
=

>  <assay_description>  (90) 
Inhibitory concentration required to inhibit Abl tyrosine kinase

>  <published_relation>  (90) 
=

>  <standard_value>  (90) 
52

>  <qudt_units>  (90) 
http://www.openphacts.org/units/Nanomolar

>  <target_tax_id>  (90) 
9606

>  <bao_label>  (90) 
single protein format

>  <published_units>  (90) 
nM

>  <pchembl_value>  (90) 
7.28

>  <published_type>  (90) 
IC50

>  <activity_comment>  (90) 
None

$$$$

     RDKit          

 39 43  0  0  0  0  0  0  0  0999 V2000
    0.0000    0.0000    0.0000 C   0  0  0  0  0  0  0  0  0  0  0  0
    0.0000    0.0000    0.0000 N   0  0  0  0  0  0  0  0  0  0  0  0
    0.0000    0.0000    0.0000 C   0  0  0  0  0  0  0  0  0  0  0  0
    0.0000    0.0000    0.0000 C   0  0  0  0  0  0  0  0  0  0  0  0
    0.0000    0.0000    0.0000 C   0  0  0  0  0  0  0  0  0  0  0  0
    0.0000    0.0000    0.0000 C   0  0  0  0  0  0  0  0  0  0  0  0
    0.0000    0.0000    0.0000 C   0  0  0  0  0  0  0  0  0  0  0  0
    0.0000    0.0000    0.0000 C   0  0  0  0  0  0  0  0  0  0  0  0
    0.0000    0.0000    0.0000 C   0  0  0  0  0  0  0  0  0  0  0  0
    0.0000    0.0000    0.0000 N   0  0  0  0  0  0  0  0  0  0  0  0
    0.0000    0.0000    0.0000 C   0  0  0  0  0  0  0  0  0  0  0  0
    0.0000    0.0000    0.0000 O   0  0  0  0  0  0  0  0  0  0  0  0
    0.0000    0.0000    0.0000 N   0  0  0  0  0  0  0  0  0  0  0  0
    0.0000    0.0000    0.0000 C   0  0  0  0  0  0  0  0  0  0  0  0
    0.0000    0.0000    0.0000 C   0  0  0  0  0  0  0  0  0  0  0  0
    0.0000    0.0000    0.0000 C   0  0  0  0  0  0  0  0  0  0  0  0
    0.0000    0.0000    0.0000 C   0  0  0  0  0  0  0  0  0  0  0  0
    0.0000    0.0000    0.0000 C   0  0  0  0  0  0  0  0  0  0  0  0
    0.0000    0.0000    0.0000 C   0  0  0  0  0  0  0  0  0  0  0  0
    0.0000    0.0000    0.0000 N   0  0  0  0  0  0  0  0  0  0  0  0
    0.0000    0.0000    0.0000 C   0  0  0  0  0  0  0  0  0  0  0  0
    0.0000    0.0000    0.0000 N   0  0  0  0  0  0  0  0  0  0  0  0
    0.0000    0.0000    0.0000 C   0  0  0  0  0  0  0  0  0  0  0  0
    0.0000    0.0000    0.0000 C   0  0  0  0  0  0  0  0  0  0  0  0
    0.0000    0.0000    0.0000 C   0  0  0  0  0  0  0  0  0  0  0  0
    0.0000    0.0000    0.0000 N   0  0  0  0  0  0  0  0  0  0  0  0
    0.0000    0.0000    0.0000 C   0  0  0  0  0  0  0  0  0  0  0  0
    0.0000    0.0000    0.0000 C   0  0  0  0  0  0  0  0  0  0  0  0
    0.0000    0.0000    0.0000 C   0  0  0  0  0  0  0  0  0  0  0  0
    0.0000    0.0000    0.0000 C   0  0  0  0  0  0  0  0  0  0  0  0
    0.0000    0.0000    0.0000 N   0  0  0  0  0  0  0  0  0  0  0  0
    0.0000    0.0000    0.0000 C   0  0  0  0  0  0  0  0  0  0  0  0
    0.0000    0.0000    0.0000 C   0  0  0  0  0  0  0  0  0  0  0  0
    0.0000    0.0000    0.0000 C   0  0  0  0  0  0  0  0  0  0  0  0
    0.0000    0.0000    0.0000 C   0  0  0  0  0  0  0  0  0  0  0  0
    0.0000    0.0000    0.0000 C   0  0  0  0  0  0  0  0  0  0  0  0
    0.0000    0.0000    0.0000 C   0  0  0  0  0  0  0  0  0  0  0  0
    0.0000    0.0000    0.0000 C   0  0  0  0  0  0  0  0  0  0  0  0
    0.0000    0.0000    0.0000 C   0  0  0  0  0  0  0  0  0  0  0  0
  1  2  1  0
  2  3  1  0
  3  4  1  0
  4  5  2  0
  5  6  1  0
  6  7  2  0
  7  8  1  0
  8  9  2  0
  9 10  1  0
 10 11  1  0
 11 12  2  0
 11 13  1  0
 13 14  1  0
 14 15  2  0
 15 16  1  0
 16 17  2  0
 17 18  1  0
 17 19  1  0
 19 20  1  0
 20 21  1  0
 21 22  2  0
 22 23  1  0
 23 24  2  0
 24 25  1  0
 25 26  2  0
 25 27  1  0
 27 28  2  0
 28 29  1  0
 29 30  2  0
 30 31  1  0
 31 32  2  0
 19 33  2  0
  2 34  1  0
 34 35  1  0
 35 36  1  0
 36 37  1  0
 37 38  1  0
 38 39  1  0
  9  4  1  0
 33 14  1  0
 26 21  1  0
 32 27  1  0
 39 34  1  0
M  END
>  <pIC50>  (91) 
6.06

>  <ChEMBL_ID>  (91) 
CHEMBL365277

>  <document_journal>  (91) 
Bioorg. Med. Chem. Lett.

>  <bao_endpoint>  (91) 
BAO_0000190

>  <potential_duplicate>  (91) 
False

>  <uo_units>  (91) 
UO_0000065

>  <canonical_smiles>  (91) 
CN(Cc1ccccc1NC(=O)Nc2ccc(C)c(Nc3nccc(n3)c4cccnc4)c2)C5CCCCC5

>  <parent_molecule_chembl_id>  (91) 
CHEMBL365277

>  <assay_type>  (91) 
B

>  <src_id>  (91) 
1

>  <ligand_efficiency>  (91) 
{u'le': u'0.21', u'bei': u'11.62', u'sei': u'6.37', u'lle': u'0.03'}

>  <standard_flag>  (91) 
True

>  <molecule_chembl_id>  (91) 
CHEMBL365277

>  <target_organism>  (91) 
Homo sapiens

>  <standard_units>  (91) 
nM

>  <record_id>  (91) 
377455

>  <document_chembl_id>  (91) 
CHEMBL1138649

>  <bao_format>  (91) 
BAO_0000357

>  <data_validity_description>  (91) 
None

>  <activity_id>  (91) 
1460789

>  <standard_type>  (91) 
IC50

>  <target_chembl_id>  (91) 
CHEMBL1862

>  <data_validity_comment>  (91) 
None

>  <published_value>  (91) 
870

>  <document_year>  (91) 
2004

>  <target_pref_name>  (91) 
Tyrosine-protein kinase ABL

>  <assay_chembl_id>  (91) 
CHEMBL831639

>  <standard_relation>  (91) 
=

>  <assay_description>  (91) 
Inhibitory concentration required to inhibit Abl tyrosine kinase

>  <published_relation>  (91) 
=

>  <standard_value>  (91) 
870

>  <qudt_units>  (91) 
http://www.openphacts.org/units/Nanomolar

>  <target_tax_id>  (91) 
9606

>  <bao_label>  (91) 
single protein format

>  <published_units>  (91) 
nM

>  <pchembl_value>  (91) 
6.06

>  <published_type>  (91) 
IC50

>  <activity_comment>  (91) 
None

$$$$

     RDKit          

 35 42  0  0  0  0  0  0  0  0999 V2000
    0.0000    0.0000    0.0000 C   0  0  0  0  0  0  0  0  0  0  0  0
    0.0000    0.0000    0.0000 N   0  0  0  0  0  0  0  0  0  0  0  0
    0.0000    0.0000    0.0000 C   0  0  0  0  0  0  0  0  0  0  0  0
    0.0000    0.0000    0.0000 C   0  0  0  0  0  0  0  0  0  0  0  0
    0.0000    0.0000    0.0000 C   0  0  0  0  0  0  0  0  0  0  0  0
    0.0000    0.0000    0.0000 O   0  0  0  0  0  0  0  0  0  0  0  0
    0.0000    0.0000    0.0000 C   0  0  0  0  0  0  0  0  0  0  0  0
    0.0000    0.0000    0.0000 C   0  0  0  0  0  0  0  0  0  0  0  0
    0.0000    0.0000    0.0000 C   0  0  0  0  0  0  0  0  0  0  0  0
    0.0000    0.0000    0.0000 O   0  0  0  0  0  0  0  0  0  0  0  0
    0.0000    0.0000    0.0000 C   0  0  0  0  0  0  0  0  0  0  0  0
    0.0000    0.0000    0.0000 N   0  0  0  0  0  0  0  0  0  0  0  0
    0.0000    0.0000    0.0000 C   0  0  0  0  0  0  0  0  0  0  0  0
    0.0000    0.0000    0.0000 C   0  0  0  0  0  0  0  0  0  0  0  0
    0.0000    0.0000    0.0000 C   0  0  0  0  0  0  0  0  0  0  0  0
    0.0000    0.0000    0.0000 C   0  0  0  0  0  0  0  0  0  0  0  0
    0.0000    0.0000    0.0000 C   0  0  0  0  0  0  0  0  0  0  0  0
    0.0000    0.0000    0.0000 C   0  0  0  0  0  0  0  0  0  0  0  0
    0.0000    0.0000    0.0000 C   0  0  0  0  0  0  0  0  0  0  0  0
    0.0000    0.0000    0.0000 C   0  0  0  0  0  0  0  0  0  0  0  0
    0.0000    0.0000    0.0000 C   0  0  0  0  0  0  0  0  0  0  0  0
    0.0000    0.0000    0.0000 N   0  0  0  0  0  0  0  0  0  0  0  0
    0.0000    0.0000    0.0000 C   0  0  0  0  0  0  0  0  0  0  0  0
    0.0000    0.0000    0.0000 O   0  0  0  0  0  0  0  0  0  0  0  0
    0.0000    0.0000    0.0000 C   0  0  0  0  0  0  0  0  0  0  0  0
    0.0000    0.0000    0.0000 C   0  0  0  0  0  0  0  0  0  0  0  0
    0.0000    0.0000    0.0000 C   0  0  0  0  0  0  0  0  0  0  0  0
    0.0000    0.0000    0.0000 C   0  0  0  0  0  0  0  0  0  0  0  0
    0.0000    0.0000    0.0000 C   0  0  0  0  0  0  0  0  0  0  0  0
    0.0000    0.0000    0.0000 C   0  0  0  0  0  0  0  0  0  0  0  0
    0.0000    0.0000    0.0000 C   0  0  0  0  0  0  0  0  0  0  0  0
    0.0000    0.0000    0.0000 C   0  0  0  0  0  0  0  0  0  0  0  0
    0.0000    0.0000    0.0000 N   0  0  0  0  0  0  0  0  0  0  0  0
    0.0000    0.0000    0.0000 C   0  0  0  0  0  0  0  0  0  0  0  0
    0.0000    0.0000    0.0000 C   0  0  0  0  0  0  0  0  0  0  0  0
  1  2  1  0
  2  3  1  0
  3  4  1  0
  4  5  1  0
  5  6  1  0
  6  7  1  0
  7  8  1  0
  7  9  1  0
  9 10  1  0
 10 11  1  0
  7 12  1  0
 12 13  1  0
 13 14  2  0
 14 15  1  0
 15 16  2  0
 16 17  1  0
 17 18  2  0
 18 19  1  0
 19 20  2  0
 20 21  1  0
 21 22  1  0
 22 23  1  0
 23 24  2  0
 23 25  1  0
 25 26  2  0
 26 27  1  0
 27 28  2  0
 28 29  1  0
 29 30  2  0
 30 31  1  0
 31 32  2  0
 32 33  1  0
 33 34  1  0
 34 35  2  0
  9  3  1  0
 33  5  1  0
 35 12  1  0
 18 13  1  0
 35 19  1  0
 25 20  1  0
 34 26  1  0
 32 27  1  0
M  END
>  <pIC50>  (92) 
6.87714285714

>  <ChEMBL_ID>  (92) 
CHEMBL388978

>  <document_journal>  (92) 
J. Med. Chem.

>  <bao_endpoint>  (92) 
BAO_0000190

>  <potential_duplicate>  (92) 
False

>  <uo_units>  (92) 
UO_0000065

>  <canonical_smiles>  (92) 
CN[C@@H]1C[C@H]2O[C@@](C)([C@@H]1OC)n3c4ccccc4c5c6CNC(=O)c6c7c8ccccc8n2c7c35

>  <parent_molecule_chembl_id>  (92) 
CHEMBL388978

>  <assay_type>  (92) 
B

>  <src_id>  (92) 
1

>  <ligand_efficiency>  (92) 
{u'le': u'0.29', u'bei': u'16.13', u'sei': u'10.83', u'lle': u'3.7'}

>  <standard_flag>  (92) 
True

>  <molecule_chembl_id>  (92) 
CHEMBL388978

>  <target_organism>  (92) 
Homo sapiens

>  <standard_units>  (92) 
nM

>  <record_id>  (92) 
383999

>  <document_chembl_id>  (92) 
CHEMBL1138844

>  <bao_format>  (92) 
BAO_0000357

>  <data_validity_description>  (92) 
None

>  <activity_id>  (92) 
1486635

>  <standard_type>  (92) 
IC50

>  <target_chembl_id>  (92) 
CHEMBL1862

>  <data_validity_comment>  (92) 
None

>  <published_value>  (92) 
0.03

>  <document_year>  (92) 
2004

>  <target_pref_name>  (92) 
Tyrosine-protein kinase ABL

>  <assay_chembl_id>  (92) 
CHEMBL827809

>  <standard_relation>  (92) 
=

>  <assay_description>  (92) 
Inhibition of c-Abl tyrosine kinase activity

>  <published_relation>  (92) 
=

>  <standard_value>  (92) 
30

>  <qudt_units>  (92) 
http://www.openphacts.org/units/Nanomolar

>  <target_tax_id>  (92) 
9606

>  <bao_label>  (92) 
single protein format

>  <published_units>  (92) 
uM

>  <pchembl_value>  (92) 
7.52

>  <published_type>  (92) 
IC50

>  <activity_comment>  (92) 
None

$$$$

     RDKit          

 36 39  0  0  0  0  0  0  0  0999 V2000
    0.0000    0.0000    0.0000 C   0  0  0  0  0  0  0  0  0  0  0  0
    0.0000    0.0000    0.0000 O   0  0  0  0  0  0  0  0  0  0  0  0
    0.0000    0.0000    0.0000 C   0  0  0  0  0  0  0  0  0  0  0  0
    0.0000    0.0000    0.0000 C   0  0  0  0  0  0  0  0  0  0  0  0
    0.0000    0.0000    0.0000 C   0  0  0  0  0  0  0  0  0  0  0  0
    0.0000    0.0000    0.0000 N   0  0  0  0  0  0  0  0  0  0  0  0
    0.0000    0.0000    0.0000 C   0  0  0  0  0  0  0  0  0  0  0  0
    0.0000    0.0000    0.0000 C   0  0  0  0  0  0  0  0  0  0  0  0
    0.0000    0.0000    0.0000 C   0  0  0  0  0  0  0  0  0  0  0  0
    0.0000    0.0000    0.0000 N   0  0  0  0  0  0  0  0  0  0  0  0
    0.0000    0.0000    0.0000 C   0  0  0  0  0  0  0  0  0  0  0  0
    0.0000    0.0000    0.0000 C   0  0  0  0  0  0  0  0  0  0  0  0
    0.0000    0.0000    0.0000 C   0  0  0  0  0  0  0  0  0  0  0  0
    0.0000    0.0000    0.0000 O   0  0  0  0  0  0  0  0  0  0  0  0
    0.0000    0.0000    0.0000 C   0  0  0  0  0  0  0  0  0  0  0  0
    0.0000    0.0000    0.0000 C   0  0  0  0  0  0  0  0  0  0  0  0
    0.0000    0.0000    0.0000 C   0  0  0  0  0  0  0  0  0  0  0  0
    0.0000    0.0000    0.0000 N   0  0  0  0  0  0  0  0  0  0  0  0
    0.0000    0.0000    0.0000 C   0  0  0  0  0  0  0  0  0  0  0  0
    0.0000    0.0000    0.0000 C   0  0  0  0  0  0  0  0  0  0  0  0
    0.0000    0.0000    0.0000 N   0  0  0  0  0  0  0  0  0  0  0  0
    0.0000    0.0000    0.0000 C   0  0  0  0  0  0  0  0  0  0  0  0
    0.0000    0.0000    0.0000 C   0  0  0  0  0  0  0  0  0  0  0  0
    0.0000    0.0000    0.0000 C   0  0  0  0  0  0  0  0  0  0  0  0
    0.0000    0.0000    0.0000 C   0  0  0  0  0  0  0  0  0  0  0  0
    0.0000    0.0000    0.0000 O   0  0  0  0  0  0  0  0  0  0  0  0
    0.0000    0.0000    0.0000 C   0  0  0  0  0  0  0  0  0  0  0  0
    0.0000    0.0000    0.0000 C   0  0  0  0  0  0  0  0  0  0  0  0
    0.0000    0.0000    0.0000 C   0  0  0  0  0  0  0  0  0  0  0  0
    0.0000    0.0000    0.0000 C   0  0  0  0  0  0  0  0  0  0  0  0
    0.0000    0.0000    0.0000 N   0  0  0  0  0  0  0  0  0  0  0  0
    0.0000    0.0000    0.0000 C   0  0  0  0  0  0  0  0  0  0  0  0
    0.0000    0.0000    0.0000 Cl  0  0  0  0  0  0  0  0  0  0  0  0
    0.0000    0.0000    0.0000 C   0  0  0  0  0  0  0  0  0  0  0  0
    0.0000    0.0000    0.0000 C   0  0  0  0  0  0  0  0  0  0  0  0
    0.0000    0.0000    0.0000 Cl  0  0  0  0  0  0  0  0  0  0  0  0
  1  2  1  0
  2  3  1  0
  3  4  2  0
  4  5  1  0
  5  6  1  0
  6  7  1  0
  7  8  2  0
  8  9  1  0
  9 10  2  0
 10 11  1  0
 11 12  2  0
 12 13  1  0
 13 14  1  0
 14 15  1  0
 15 16  1  0
 16 17  1  0
 17 18  1  0
 18 19  1  0
 19 20  1  0
 20 21  1  0
 21 22  1  0
 21 23  1  0
 23 24  1  0
 13 25  2  0
 25 26  1  0
 26 27  1  0
 25 28  1  0
 28 29  2  0
  8 30  1  0
 30 31  3  0
  5 32  2  0
 32 33  1  0
 32 34  1  0
 34 35  2  0
 35 36  1  0
 35  3  1  0
 29  7  1  0
 29 11  1  0
 24 18  1  0
M  END
>  <pIC50>  (93) 
8.506

>  <ChEMBL_ID>  (93) 
CHEMBL288441

>  <document_journal>  (93) 
J. Med. Chem.

>  <bao_endpoint>  (93) 
BAO_0000190

>  <potential_duplicate>  (93) 
False

>  <uo_units>  (93) 
UO_0000065

>  <canonical_smiles>  (93) 
COc1cc(Nc2c(cnc3cc(OCCCN4CCN(C)CC4)c(OC)cc23)C#N)c(Cl)cc1Cl

>  <parent_molecule_chembl_id>  (93) 
CHEMBL288441

>  <assay_type>  (93) 
F

>  <src_id>  (93) 
1

>  <ligand_efficiency>  (93) 
None

>  <standard_flag>  (93) 
True

>  <molecule_chembl_id>  (93) 
CHEMBL288441

>  <target_organism>  (93) 
Homo sapiens

>  <standard_units>  (93) 
nM

>  <record_id>  (93) 
402381

>  <document_chembl_id>  (93) 
CHEMBL1141082

>  <bao_format>  (93) 
BAO_0000019

>  <data_validity_description>  (93) 
None

>  <activity_id>  (93) 
1607517

>  <standard_type>  (93) 
IC50

>  <target_chembl_id>  (93) 
CHEMBL1862

>  <data_validity_comment>  (93) 
None

>  <published_value>  (93) 
0.49

>  <document_year>  (93) 
2005

>  <target_pref_name>  (93) 
Tyrosine-protein kinase ABL

>  <assay_chembl_id>  (93) 
CHEMBL885131

>  <standard_relation>  (93) 
=

>  <assay_description>  (93) 
Inhibitory concentration against Abl transformed rat fibroblast cells

>  <published_relation>  (93) 
=

>  <standard_value>  (93) 
490

>  <qudt_units>  (93) 
http://www.openphacts.org/units/Nanomolar

>  <target_tax_id>  (93) 
9606

>  <bao_label>  (93) 
assay format

>  <published_units>  (93) 
uM

>  <pchembl_value>  (93) 
6.31

>  <published_type>  (93) 
IC50

>  <activity_comment>  (93) 
None

$$$$

     RDKit          

 38 42  0  0  0  0  0  0  0  0999 V2000
    0.0000    0.0000    0.0000 C   0  0  0  0  0  0  0  0  0  0  0  0
    0.0000    0.0000    0.0000 O   0  0  0  0  0  0  0  0  0  0  0  0
    0.0000    0.0000    0.0000 C   0  0  0  0  0  0  0  0  0  0  0  0
    0.0000    0.0000    0.0000 C   0  0  0  0  0  0  0  0  0  0  0  0
    0.0000    0.0000    0.0000 C   0  0  0  0  0  0  0  0  0  0  0  0
    0.0000    0.0000    0.0000 N   0  0  0  0  0  0  0  0  0  0  0  0
    0.0000    0.0000    0.0000 C   0  0  0  0  0  0  0  0  0  0  0  0
    0.0000    0.0000    0.0000 C   0  0  0  0  0  0  0  0  0  0  0  0
    0.0000    0.0000    0.0000 C   0  0  0  0  0  0  0  0  0  0  0  0
    0.0000    0.0000    0.0000 N   0  0  0  0  0  0  0  0  0  0  0  0
    0.0000    0.0000    0.0000 C   0  0  0  0  0  0  0  0  0  0  0  0
    0.0000    0.0000    0.0000 C   0  0  0  0  0  0  0  0  0  0  0  0
    0.0000    0.0000    0.0000 C   0  0  0  0  0  0  0  0  0  0  0  0
    0.0000    0.0000    0.0000 C   0  0  0  0  0  0  0  0  0  0  0  0
    0.0000    0.0000    0.0000 C   0  0  0  0  0  0  0  0  0  0  0  0
    0.0000    0.0000    0.0000 O   0  0  0  0  0  0  0  0  0  0  0  0
    0.0000    0.0000    0.0000 C   0  0  0  0  0  0  0  0  0  0  0  0
    0.0000    0.0000    0.0000 C   0  0  0  0  0  0  0  0  0  0  0  0
    0.0000    0.0000    0.0000 N   0  0  0  0  0  0  0  0  0  0  0  0
    0.0000    0.0000    0.0000 C   0  0  0  0  0  0  0  0  0  0  0  0
    0.0000    0.0000    0.0000 C   0  0  0  0  0  0  0  0  0  0  0  0
    0.0000    0.0000    0.0000 O   0  0  0  0  0  0  0  0  0  0  0  0
    0.0000    0.0000    0.0000 C   0  0  0  0  0  0  0  0  0  0  0  0
    0.0000    0.0000    0.0000 C   0  0  0  0  0  0  0  0  0  0  0  0
    0.0000    0.0000    0.0000 C   0  0  0  0  0  0  0  0  0  0  0  0
    0.0000    0.0000    0.0000 O   0  0  0  0  0  0  0  0  0  0  0  0
    0.0000    0.0000    0.0000 C   0  0  0  0  0  0  0  0  0  0  0  0
    0.0000    0.0000    0.0000 C   0  0  0  0  0  0  0  0  0  0  0  0
    0.0000    0.0000    0.0000 C   0  0  0  0  0  0  0  0  0  0  0  0
    0.0000    0.0000    0.0000 C   0  0  0  0  0  0  0  0  0  0  0  0
    0.0000    0.0000    0.0000 C   0  0  0  0  0  0  0  0  0  0  0  0
    0.0000    0.0000    0.0000 C   0  0  0  0  0  0  0  0  0  0  0  0
    0.0000    0.0000    0.0000 N   0  0  0  0  0  0  0  0  0  0  0  0
    0.0000    0.0000    0.0000 C   0  0  0  0  0  0  0  0  0  0  0  0
    0.0000    0.0000    0.0000 Cl  0  0  0  0  0  0  0  0  0  0  0  0
    0.0000    0.0000    0.0000 C   0  0  0  0  0  0  0  0  0  0  0  0
    0.0000    0.0000    0.0000 C   0  0  0  0  0  0  0  0  0  0  0  0
    0.0000    0.0000    0.0000 Cl  0  0  0  0  0  0  0  0  0  0  0  0
  1  2  1  0
  2  3  1  0
  3  4  2  0
  4  5  1  0
  5  6  1  0
  6  7  1  0
  7  8  2  0
  8  9  1  0
  9 10  2  0
 10 11  1  0
 11 12  2  0
 12 13  1  0
 13 14  2  0
 14 15  1  0
 15 16  1  0
 16 17  1  0
 17 18  1  0
 18 19  1  0
 19 20  1  0
 20 21  1  0
 21 22  1  0
 22 23  1  0
 23 24  1  0
 15 25  2  0
 25 26  1  0
 26 27  1  0
 25 28  1  0
 28 29  2  0
 29 30  1  0
 30 31  2  0
  8 32  1  0
 32 33  3  0
  5 34  2  0
 34 35  1  0
 34 36  1  0
 36 37  2  0
 37 38  1  0
 37  3  1  0
 31  7  1  0
 31 11  1  0
 29 13  1  0
 24 19  1  0
M  END
>  <pIC50>  (94) 
6.31

>  <ChEMBL_ID>  (94) 
CHEMBL195029

>  <document_journal>  (94) 
J. Med. Chem.

>  <bao_endpoint>  (94) 
BAO_0000190

>  <potential_duplicate>  (94) 
False

>  <uo_units>  (94) 
UO_0000065

>  <canonical_smiles>  (94) 
COc1cc(Nc2c(cnc3cc4cc(OCCN5CCOCC5)c(OC)cc4cc23)C#N)c(Cl)cc1Cl

>  <parent_molecule_chembl_id>  (94) 
CHEMBL195029

>  <assay_type>  (94) 
F

>  <src_id>  (94) 
1

>  <ligand_efficiency>  (94) 
None

>  <standard_flag>  (94) 
True

>  <molecule_chembl_id>  (94) 
CHEMBL195029

>  <target_organism>  (94) 
Homo sapiens

>  <standard_units>  (94) 
nM

>  <record_id>  (94) 
402395

>  <document_chembl_id>  (94) 
CHEMBL1141082

>  <bao_format>  (94) 
BAO_0000019

>  <data_validity_description>  (94) 
None

>  <activity_id>  (94) 
1607558

>  <standard_type>  (94) 
IC50

>  <target_chembl_id>  (94) 
CHEMBL1862

>  <data_validity_comment>  (94) 
None

>  <published_value>  (94) 
0.49

>  <document_year>  (94) 
2005

>  <target_pref_name>  (94) 
Tyrosine-protein kinase ABL

>  <assay_chembl_id>  (94) 
CHEMBL885131

>  <standard_relation>  (94) 
=

>  <assay_description>  (94) 
Inhibitory concentration against Abl transformed rat fibroblast cells

>  <published_relation>  (94) 
=

>  <standard_value>  (94) 
490

>  <qudt_units>  (94) 
http://www.openphacts.org/units/Nanomolar

>  <target_tax_id>  (94) 
9606

>  <bao_label>  (94) 
assay format

>  <published_units>  (94) 
uM

>  <pchembl_value>  (94) 
6.31

>  <published_type>  (94) 
IC50

>  <activity_comment>  (94) 
None

$$$$

     RDKit          

 24 27  0  0  0  0  0  0  0  0999 V2000
    0.0000    0.0000    0.0000 C   0  0  0  0  0  0  0  0  0  0  0  0
    0.0000    0.0000    0.0000 O   0  0  0  0  0  0  0  0  0  0  0  0
    0.0000    0.0000    0.0000 C   0  0  0  0  0  0  0  0  0  0  0  0
    0.0000    0.0000    0.0000 C   0  0  0  0  0  0  0  0  0  0  0  0
    0.0000    0.0000    0.0000 C   0  0  0  0  0  0  0  0  0  0  0  0
    0.0000    0.0000    0.0000 C   0  0  0  0  0  0  0  0  0  0  0  0
    0.0000    0.0000    0.0000 C   0  0  0  0  0  0  0  0  0  0  0  0
    0.0000    0.0000    0.0000 C   0  0  0  0  0  0  0  0  0  0  0  0
    0.0000    0.0000    0.0000 N   0  0  0  0  0  0  0  0  0  0  0  0
    0.0000    0.0000    0.0000 C   0  0  0  0  0  0  0  0  0  0  0  0
    0.0000    0.0000    0.0000 C   0  0  0  0  0  0  0  0  0  0  0  0
    0.0000    0.0000    0.0000 C   0  0  0  0  0  0  0  0  0  0  0  0
    0.0000    0.0000    0.0000 C   0  0  0  0  0  0  0  0  0  0  0  0
    0.0000    0.0000    0.0000 C   0  0  0  0  0  0  0  0  0  0  0  0
    0.0000    0.0000    0.0000 F   0  0  0  0  0  0  0  0  0  0  0  0
    0.0000    0.0000    0.0000 C   0  0  0  0  0  0  0  0  0  0  0  0
    0.0000    0.0000    0.0000 N   0  0  0  0  0  0  0  0  0  0  0  0
    0.0000    0.0000    0.0000 N   0  0  0  0  0  0  0  0  0  0  0  0
    0.0000    0.0000    0.0000 C   0  0  0  0  0  0  0  0  0  0  0  0
    0.0000    0.0000    0.0000 C   0  0  0  0  0  0  0  0  0  0  0  0
    0.0000    0.0000    0.0000 C   0  0  0  0  0  0  0  0  0  0  0  0
    0.0000    0.0000    0.0000 C   0  0  0  0  0  0  0  0  0  0  0  0
    0.0000    0.0000    0.0000 O   0  0  0  0  0  0  0  0  0  0  0  0
    0.0000    0.0000    0.0000 C   0  0  0  0  0  0  0  0  0  0  0  0
  1  2  1  0
  2  3  1  0
  3  4  2  0
  4  5  1  0
  5  6  1  0
  6  7  1  0
  7  8  2  0
  8  9  1  0
  9 10  1  0
 10 11  2  0
 11 12  1  0
 12 13  2  0
 13 14  1  0
 14 15  1  0
 14 16  2  0
  8 17  1  0
 17 18  1  0
 18 19  2  0
 19 20  1  0
 20 21  1  0
 21 22  2  0
 22 23  1  0
 23 24  1  0
 22  3  1  0
 20  5  2  0
 19  7  1  0
 16 10  1  0
M  END
>  <pIC50>  (95) 
7.66

>  <ChEMBL_ID>  (95) 
CHEMBL120077

>  <document_journal>  (95) 
J. Med. Chem.

>  <bao_endpoint>  (95) 
BAO_0000190

>  <potential_duplicate>  (95) 
False

>  <uo_units>  (95) 
UO_0000065

>  <canonical_smiles>  (95) 
COc1cc2Cc3c(Nc4cccc(F)c4)[nH]nc3c2cc1OC

>  <parent_molecule_chembl_id>  (95) 
CHEMBL120077

>  <assay_type>  (95) 
B

>  <src_id>  (95) 
1

>  <ligand_efficiency>  (95) 
{u'le': u'0.44', u'bei': u'23.54', u'sei': u'12.94', u'lle': u'3.45'}

>  <standard_flag>  (95) 
True

>  <molecule_chembl_id>  (95) 
CHEMBL120077

>  <target_organism>  (95) 
Homo sapiens

>  <standard_units>  (95) 
nM

>  <record_id>  (95) 
406134

>  <document_chembl_id>  (95) 
CHEMBL1140423

>  <bao_format>  (95) 
BAO_0000357

>  <data_validity_description>  (95) 
None

>  <activity_id>  (95) 
1653638

>  <standard_type>  (95) 
IC50

>  <target_chembl_id>  (95) 
CHEMBL1862

>  <data_validity_comment>  (95) 
None

>  <published_value>  (95) 
0.022

>  <document_year>  (95) 
2005

>  <target_pref_name>  (95) 
Tyrosine-protein kinase ABL

>  <assay_chembl_id>  (95) 
CHEMBL861480

>  <standard_relation>  (95) 
=

>  <assay_description>  (95) 
Inhibitory activity against c-ABL

>  <published_relation>  (95) 
=

>  <standard_value>  (95) 
22

>  <qudt_units>  (95) 
http://www.openphacts.org/units/Nanomolar

>  <target_tax_id>  (95) 
9606

>  <bao_label>  (95) 
single protein format

>  <published_units>  (95) 
uM

>  <pchembl_value>  (95) 
7.66

>  <published_type>  (95) 
IC50

>  <activity_comment>  (95) 
None

$$$$

     RDKit          

 22 25  0  0  0  0  0  0  0  0999 V2000
    0.0000    0.0000    0.0000 O   0  0  0  0  0  0  0  0  0  0  0  0
    0.0000    0.0000    0.0000 C   0  0  0  0  0  0  0  0  0  0  0  0
    0.0000    0.0000    0.0000 C   0  0  0  0  0  0  0  0  0  0  0  0
    0.0000    0.0000    0.0000 C   0  0  0  0  0  0  0  0  0  0  0  0
    0.0000    0.0000    0.0000 C   0  0  0  0  0  0  0  0  0  0  0  0
    0.0000    0.0000    0.0000 N   0  0  0  0  0  0  0  0  0  0  0  0
    0.0000    0.0000    0.0000 C   0  0  0  0  0  0  0  0  0  0  0  0
    0.0000    0.0000    0.0000 C   0  0  0  0  0  0  0  0  0  0  0  0
    0.0000    0.0000    0.0000 C   0  0  0  0  0  0  0  0  0  0  0  0
    0.0000    0.0000    0.0000 C   0  0  0  0  0  0  0  0  0  0  0  0
    0.0000    0.0000    0.0000 C   0  0  0  0  0  0  0  0  0  0  0  0
    0.0000    0.0000    0.0000 O   0  0  0  0  0  0  0  0  0  0  0  0
    0.0000    0.0000    0.0000 C   0  0  0  0  0  0  0  0  0  0  0  0
    0.0000    0.0000    0.0000 C   0  0  0  0  0  0  0  0  0  0  0  0
    0.0000    0.0000    0.0000 C   0  0  0  0  0  0  0  0  0  0  0  0
    0.0000    0.0000    0.0000 C   0  0  0  0  0  0  0  0  0  0  0  0
    0.0000    0.0000    0.0000 C   0  0  0  0  0  0  0  0  0  0  0  0
    0.0000    0.0000    0.0000 O   0  0  0  0  0  0  0  0  0  0  0  0
    0.0000    0.0000    0.0000 C   0  0  0  0  0  0  0  0  0  0  0  0
    0.0000    0.0000    0.0000 C   0  0  0  0  0  0  0  0  0  0  0  0
    0.0000    0.0000    0.0000 C   0  0  0  0  0  0  0  0  0  0  0  0
    0.0000    0.0000    0.0000 N   0  0  0  0  0  0  0  0  0  0  0  0
  1  2  1  0
  2  3  2  0
  3  4  1  0
  4  5  2  0
  5  6  1  0
  6  7  1  0
  7  8  2  0
  8  9  1  0
  9 10  2  0
  7 11  1  0
 11 12  2  0
 11 13  1  0
 13 14  2  0
 14 15  1  0
 15 16  2  0
 16 17  1  0
 17 18  1  0
 17 19  2  0
 19 20  1  0
 20 21  2  0
 21 22  1  0
 10  2  1  0
  9  5  1  0
 22 13  1  0
 21 15  1  0
M  END
>  <pIC50>  (96) 
5.89

>  <ChEMBL_ID>  (96) 
CHEMBL377193

>  <document_journal>  (96) 
J. Med. Chem.

>  <bao_endpoint>  (96) 
BAO_0000190

>  <potential_duplicate>  (96) 
False

>  <uo_units>  (96) 
UO_0000065

>  <canonical_smiles>  (96) 
Oc1ccc2[nH]c(cc2c1)C(=O)c3cc4cc(O)ccc4[nH]3

>  <parent_molecule_chembl_id>  (96) 
CHEMBL377193

>  <assay_type>  (96) 
B

>  <src_id>  (96) 
1

>  <ligand_efficiency>  (96) 
{u'le': u'0.37', u'bei': u'20.14', u'sei': u'6.61', u'lle': u'1.97'}

>  <standard_flag>  (96) 
True

>  <molecule_chembl_id>  (96) 
CHEMBL377193

>  <target_organism>  (96) 
Homo sapiens

>  <standard_units>  (96) 
nM

>  <record_id>  (96) 
480117

>  <document_chembl_id>  (96) 
CHEMBL1147798

>  <bao_format>  (96) 
BAO_0000357

>  <data_validity_description>  (96) 
None

>  <activity_id>  (96) 
1720135

>  <standard_type>  (96) 
IC50

>  <target_chembl_id>  (96) 
CHEMBL1862

>  <data_validity_comment>  (96) 
None

>  <published_value>  (96) 
1.3

>  <document_year>  (96) 
2006

>  <target_pref_name>  (96) 
Tyrosine-protein kinase ABL

>  <assay_chembl_id>  (96) 
CHEMBL871311

>  <standard_relation>  (96) 
=

>  <assay_description>  (96) 
Inhibition of recombinant Abl

>  <published_relation>  (96) 
=

>  <standard_value>  (96) 
1300

>  <qudt_units>  (96) 
http://www.openphacts.org/units/Nanomolar

>  <target_tax_id>  (96) 
9606

>  <bao_label>  (96) 
single protein format

>  <published_units>  (96) 
uM

>  <pchembl_value>  (96) 
5.89

>  <published_type>  (96) 
IC50

>  <activity_comment>  (96) 
None

$$$$

     RDKit          

 37 43  0  0  0  0  0  0  0  0999 V2000
    0.0000    0.0000    0.0000 C   0  0  0  0  0  0  0  0  0  0  0  0
    0.0000    0.0000    0.0000 N   0  0  0  0  0  0  0  0  0  0  0  0
    0.0000    0.0000    0.0000 C   0  0  0  0  0  0  0  0  0  0  0  0
    0.0000    0.0000    0.0000 C   0  0  0  0  0  0  0  0  0  0  0  0
    0.0000    0.0000    0.0000 C   0  0  0  0  0  0  0  0  0  0  0  0
    0.0000    0.0000    0.0000 C   0  0  0  0  0  0  0  0  0  0  0  0
    0.0000    0.0000    0.0000 N   0  0  0  0  0  0  0  0  0  0  0  0
    0.0000    0.0000    0.0000 N   0  0  0  0  0  0  0  0  0  0  0  0
    0.0000    0.0000    0.0000 C   0  0  0  0  0  0  0  0  0  0  0  0
    0.0000    0.0000    0.0000 C   0  0  0  0  0  0  0  0  0  0  0  0
    0.0000    0.0000    0.0000 N   0  0  0  0  0  0  0  0  0  0  0  0
    0.0000    0.0000    0.0000 C   0  0  0  0  0  0  0  0  0  0  0  0
    0.0000    0.0000    0.0000 C   0  0  0  0  0  0  0  0  0  0  0  0
    0.0000    0.0000    0.0000 C   0  0  0  0  0  0  0  0  0  0  0  0
    0.0000    0.0000    0.0000 C   0  0  0  0  0  0  0  0  0  0  0  0
    0.0000    0.0000    0.0000 C   0  0  0  0  0  0  0  0  0  0  0  0
    0.0000    0.0000    0.0000 C   0  0  0  0  0  0  0  0  0  0  0  0
    0.0000    0.0000    0.0000 N   0  0  0  0  0  0  0  0  0  0  0  0
    0.0000    0.0000    0.0000 N   0  0  0  0  0  0  0  0  0  0  0  0
    0.0000    0.0000    0.0000 C   0  0  0  0  0  0  0  0  0  0  0  0
    0.0000    0.0000    0.0000 C   0  0  0  0  0  0  0  0  0  0  0  0
    0.0000    0.0000    0.0000 C   0  0  0  0  0  0  0  0  0  0  0  0
    0.0000    0.0000    0.0000 C   0  0  0  0  0  0  0  0  0  0  0  0
    0.0000    0.0000    0.0000 C   0  0  0  0  0  0  0  0  0  0  0  0
    0.0000    0.0000    0.0000 N   0  0  0  0  0  0  0  0  0  0  0  0
    0.0000    0.0000    0.0000 C   0  0  0  0  0  0  0  0  0  0  0  0
    0.0000    0.0000    0.0000 C   0  0  0  0  0  0  0  0  0  0  0  0
    0.0000    0.0000    0.0000 C   0  0  0  0  0  0  0  0  0  0  0  0
    0.0000    0.0000    0.0000 C   0  0  0  0  0  0  0  0  0  0  0  0
    0.0000    0.0000    0.0000 C   0  0  0  0  0  0  0  0  0  0  0  0
    0.0000    0.0000    0.0000 C   0  0  0  0  0  0  0  0  0  0  0  0
    0.0000    0.0000    0.0000 C   0  0  0  0  0  0  0  0  0  0  0  0
    0.0000    0.0000    0.0000 C   0  0  0  0  0  0  0  0  0  0  0  0
    0.0000    0.0000    0.0000 N   0  0  0  0  0  0  0  0  0  0  0  0
    0.0000    0.0000    0.0000 C   0  0  0  0  0  0  0  0  0  0  0  0
    0.0000    0.0000    0.0000 C   0  0  0  0  0  0  0  0  0  0  0  0
    0.0000    0.0000    0.0000 S   0  0  0  0  0  0  0  0  0  0  0  0
  1  2  1  0
  2  3  1  0
  3  4  2  0
  4  5  1  0
  5  6  2  0
  6  7  1  0
  7  8  1  0
  8  9  2  0
  9 10  1  0
 10 11  2  0
 11 12  1  0
 12 13  2  0
 13 14  1  0
 14 15  2  0
 15 16  1  0
 16 17  2  0
 17 18  1  0
 14 19  1  0
 19 20  1  0
 20 21  1  0
 21 22  1  0
 22 23  1  0
 23 24  1  0
 22 25  1  0
 25 26  1  0
 26 27  1  0
 27 28  1  0
 28 29  1  0
 29 30  1  0
  9 31  1  0
 31 32  2  0
  1 33  1  0
 33 34  2  0
 34 35  1  0
 35 36  2  0
 36 37  1  0
 32  3  1  0
 31  6  1  0
 18 10  1  0
 17 12  1  0
 24 19  1  0
 30 25  1  0
 37 33  1  0
M  END
>  <pIC50>  (97) 
8.0

>  <ChEMBL_ID>  (97) 
CHEMBL376945

>  <document_journal>  (97) 
Bioorg. Med. Chem. Lett.

>  <bao_endpoint>  (97) 
BAO_0000190

>  <potential_duplicate>  (97) 
False

>  <uo_units>  (97) 
UO_0000065

>  <canonical_smiles>  (97) 
C(Nc1ccc2[nH]nc(c3nc4cc(ccc4[nH]3)N5CCC(CC5)N6CCCCC6)c2c1)c7nccs7

>  <parent_molecule_chembl_id>  (97) 
CHEMBL376945

>  <assay_type>  (97) 
B

>  <src_id>  (97) 
1

>  <ligand_efficiency>  (97) 
{u'le': u'0.3', u'bei': u'15.6', u'sei': u'6.84', u'lle': u'3.43'}

>  <standard_flag>  (97) 
True

>  <molecule_chembl_id>  (97) 
CHEMBL376945

>  <target_organism>  (97) 
Homo sapiens

>  <standard_units>  (97) 
nM

>  <record_id>  (97) 
498332

>  <document_chembl_id>  (97) 
CHEMBL1137421

>  <bao_format>  (97) 
BAO_0000357

>  <data_validity_description>  (97) 
None

>  <activity_id>  (97) 
1735290

>  <standard_type>  (97) 
IC50

>  <target_chembl_id>  (97) 
CHEMBL1862

>  <data_validity_comment>  (97) 
None

>  <published_value>  (97) 
0.01

>  <document_year>  (97) 
2006

>  <target_pref_name>  (97) 
Tyrosine-protein kinase ABL

>  <assay_chembl_id>  (97) 
CHEMBL871418

>  <standard_relation>  (97) 
=

>  <assay_description>  (97) 
Inhibition of c-ABL

>  <published_relation>  (97) 
=

>  <standard_value>  (97) 
10

>  <qudt_units>  (97) 
http://www.openphacts.org/units/Nanomolar

>  <target_tax_id>  (97) 
9606

>  <bao_label>  (97) 
single protein format

>  <published_units>  (97) 
uM

>  <pchembl_value>  (97) 
8

>  <published_type>  (97) 
IC50

>  <activity_comment>  (97) 
None

$$$$

     RDKit          

 37 43  0  0  0  0  0  0  0  0999 V2000
    0.0000    0.0000    0.0000 C   0  0  0  0  0  0  0  0  0  0  0  0
    0.0000    0.0000    0.0000 N   0  0  0  0  0  0  0  0  0  0  0  0
    0.0000    0.0000    0.0000 C   0  0  0  0  0  0  0  0  0  0  0  0
    0.0000    0.0000    0.0000 C   0  0  0  0  0  0  0  0  0  0  0  0
    0.0000    0.0000    0.0000 C   0  0  0  0  0  0  0  0  0  0  0  0
    0.0000    0.0000    0.0000 C   0  0  0  0  0  0  0  0  0  0  0  0
    0.0000    0.0000    0.0000 N   0  0  0  0  0  0  0  0  0  0  0  0
    0.0000    0.0000    0.0000 N   0  0  0  0  0  0  0  0  0  0  0  0
    0.0000    0.0000    0.0000 C   0  0  0  0  0  0  0  0  0  0  0  0
    0.0000    0.0000    0.0000 C   0  0  0  0  0  0  0  0  0  0  0  0
    0.0000    0.0000    0.0000 N   0  0  0  0  0  0  0  0  0  0  0  0
    0.0000    0.0000    0.0000 C   0  0  0  0  0  0  0  0  0  0  0  0
    0.0000    0.0000    0.0000 C   0  0  0  0  0  0  0  0  0  0  0  0
    0.0000    0.0000    0.0000 C   0  0  0  0  0  0  0  0  0  0  0  0
    0.0000    0.0000    0.0000 C   0  0  0  0  0  0  0  0  0  0  0  0
    0.0000    0.0000    0.0000 C   0  0  0  0  0  0  0  0  0  0  0  0
    0.0000    0.0000    0.0000 C   0  0  0  0  0  0  0  0  0  0  0  0
    0.0000    0.0000    0.0000 N   0  0  0  0  0  0  0  0  0  0  0  0
    0.0000    0.0000    0.0000 N   0  0  0  0  0  0  0  0  0  0  0  0
    0.0000    0.0000    0.0000 C   0  0  0  0  0  0  0  0  0  0  0  0
    0.0000    0.0000    0.0000 C   0  0  0  0  0  0  0  0  0  0  0  0
    0.0000    0.0000    0.0000 C   0  0  0  0  0  0  0  0  0  0  0  0
    0.0000    0.0000    0.0000 C   0  0  0  0  0  0  0  0  0  0  0  0
    0.0000    0.0000    0.0000 C   0  0  0  0  0  0  0  0  0  0  0  0
    0.0000    0.0000    0.0000 N   0  0  0  0  0  0  0  0  0  0  0  0
    0.0000    0.0000    0.0000 C   0  0  0  0  0  0  0  0  0  0  0  0
    0.0000    0.0000    0.0000 C   0  0  0  0  0  0  0  0  0  0  0  0
    0.0000    0.0000    0.0000 C   0  0  0  0  0  0  0  0  0  0  0  0
    0.0000    0.0000    0.0000 C   0  0  0  0  0  0  0  0  0  0  0  0
    0.0000    0.0000    0.0000 C   0  0  0  0  0  0  0  0  0  0  0  0
    0.0000    0.0000    0.0000 C   0  0  0  0  0  0  0  0  0  0  0  0
    0.0000    0.0000    0.0000 C   0  0  0  0  0  0  0  0  0  0  0  0
    0.0000    0.0000    0.0000 C   0  0  0  0  0  0  0  0  0  0  0  0
    0.0000    0.0000    0.0000 O   0  0  0  0  0  0  0  0  0  0  0  0
    0.0000    0.0000    0.0000 C   0  0  0  0  0  0  0  0  0  0  0  0
    0.0000    0.0000    0.0000 C   0  0  0  0  0  0  0  0  0  0  0  0
    0.0000    0.0000    0.0000 C   0  0  0  0  0  0  0  0  0  0  0  0
  1  2  1  0
  2  3  1  0
  3  4  2  0
  4  5  1  0
  5  6  2  0
  6  7  1  0
  7  8  1  0
  8  9  2  0
  9 10  1  0
 10 11  2  0
 11 12  1  0
 12 13  2  0
 13 14  1  0
 14 15  2  0
 15 16  1  0
 16 17  2  0
 17 18  1  0
 14 19  1  0
 19 20  1  0
 20 21  1  0
 21 22  1  0
 22 23  1  0
 23 24  1  0
 22 25  1  0
 25 26  1  0
 26 27  1  0
 27 28  1  0
 28 29  1  0
 29 30  1  0
  9 31  1  0
 31 32  2  0
  1 33  1  0
 33 34  1  0
 34 35  1  0
 35 36  2  0
 36 37  1  0
 32  3  1  0
 31  6  1  0
 18 10  1  0
 17 12  1  0
 24 19  1  0
 30 25  1  0
 37 33  2  0
M  END
>  <pIC50>  (98) 
7.22

>  <ChEMBL_ID>  (98) 
CHEMBL211154

>  <document_journal>  (98) 
Bioorg. Med. Chem. Lett.

>  <bao_endpoint>  (98) 
BAO_0000190

>  <potential_duplicate>  (98) 
False

>  <uo_units>  (98) 
UO_0000065

>  <canonical_smiles>  (98) 
C(Nc1ccc2[nH]nc(c3nc4cc(ccc4[nH]3)N5CCC(CC5)N6CCCCC6)c2c1)c7occc7

>  <parent_molecule_chembl_id>  (98) 
CHEMBL211154

>  <assay_type>  (98) 
B

>  <src_id>  (98) 
1

>  <ligand_efficiency>  (98) 
{u'le': u'0.27', u'bei': u'14.57', u'sei': u'8.11', u'lle': u'2.11'}

>  <standard_flag>  (98) 
True

>  <molecule_chembl_id>  (98) 
CHEMBL211154

>  <target_organism>  (98) 
Homo sapiens

>  <standard_units>  (98) 
nM

>  <record_id>  (98) 
498331

>  <document_chembl_id>  (98) 
CHEMBL1137421

>  <bao_format>  (98) 
BAO_0000357

>  <data_validity_description>  (98) 
None

>  <activity_id>  (98) 
1735292

>  <standard_type>  (98) 
IC50

>  <target_chembl_id>  (98) 
CHEMBL1862

>  <data_validity_comment>  (98) 
None

>  <published_value>  (98) 
0.06

>  <document_year>  (98) 
2006

>  <target_pref_name>  (98) 
Tyrosine-protein kinase ABL

>  <assay_chembl_id>  (98) 
CHEMBL871418

>  <standard_relation>  (98) 
=

>  <assay_description>  (98) 
Inhibition of c-ABL

>  <published_relation>  (98) 
=

>  <standard_value>  (98) 
60

>  <qudt_units>  (98) 
http://www.openphacts.org/units/Nanomolar

>  <target_tax_id>  (98) 
9606

>  <bao_label>  (98) 
single protein format

>  <published_units>  (98) 
uM

>  <pchembl_value>  (98) 
7.22

>  <published_type>  (98) 
IC50

>  <activity_comment>  (98) 
None

$$$$

     RDKit          

 38 44  0  0  0  0  0  0  0  0999 V2000
    0.0000    0.0000    0.0000 O   0  0  0  0  0  0  0  0  0  0  0  0
    0.0000    0.0000    0.0000 C   0  0  0  0  0  0  0  0  0  0  0  0
    0.0000    0.0000    0.0000 N   0  0  0  0  0  0  0  0  0  0  0  0
    0.0000    0.0000    0.0000 C   0  0  0  0  0  0  0  0  0  0  0  0
    0.0000    0.0000    0.0000 C   0  0  0  0  0  0  0  0  0  0  0  0
    0.0000    0.0000    0.0000 C   0  0  0  0  0  0  0  0  0  0  0  0
    0.0000    0.0000    0.0000 C   0  0  0  0  0  0  0  0  0  0  0  0
    0.0000    0.0000    0.0000 N   0  0  0  0  0  0  0  0  0  0  0  0
    0.0000    0.0000    0.0000 N   0  0  0  0  0  0  0  0  0  0  0  0
    0.0000    0.0000    0.0000 C   0  0  0  0  0  0  0  0  0  0  0  0
    0.0000    0.0000    0.0000 C   0  0  0  0  0  0  0  0  0  0  0  0
    0.0000    0.0000    0.0000 N   0  0  0  0  0  0  0  0  0  0  0  0
    0.0000    0.0000    0.0000 C   0  0  0  0  0  0  0  0  0  0  0  0
    0.0000    0.0000    0.0000 C   0  0  0  0  0  0  0  0  0  0  0  0
    0.0000    0.0000    0.0000 C   0  0  0  0  0  0  0  0  0  0  0  0
    0.0000    0.0000    0.0000 C   0  0  0  0  0  0  0  0  0  0  0  0
    0.0000    0.0000    0.0000 C   0  0  0  0  0  0  0  0  0  0  0  0
    0.0000    0.0000    0.0000 C   0  0  0  0  0  0  0  0  0  0  0  0
    0.0000    0.0000    0.0000 N   0  0  0  0  0  0  0  0  0  0  0  0
    0.0000    0.0000    0.0000 N   0  0  0  0  0  0  0  0  0  0  0  0
    0.0000    0.0000    0.0000 C   0  0  0  0  0  0  0  0  0  0  0  0
    0.0000    0.0000    0.0000 C   0  0  0  0  0  0  0  0  0  0  0  0
    0.0000    0.0000    0.0000 C   0  0  0  0  0  0  0  0  0  0  0  0
    0.0000    0.0000    0.0000 C   0  0  0  0  0  0  0  0  0  0  0  0
    0.0000    0.0000    0.0000 C   0  0  0  0  0  0  0  0  0  0  0  0
    0.0000    0.0000    0.0000 N   0  0  0  0  0  0  0  0  0  0  0  0
    0.0000    0.0000    0.0000 C   0  0  0  0  0  0  0  0  0  0  0  0
    0.0000    0.0000    0.0000 C   0  0  0  0  0  0  0  0  0  0  0  0
    0.0000    0.0000    0.0000 C   0  0  0  0  0  0  0  0  0  0  0  0
    0.0000    0.0000    0.0000 C   0  0  0  0  0  0  0  0  0  0  0  0
    0.0000    0.0000    0.0000 C   0  0  0  0  0  0  0  0  0  0  0  0
    0.0000    0.0000    0.0000 C   0  0  0  0  0  0  0  0  0  0  0  0
    0.0000    0.0000    0.0000 C   0  0  0  0  0  0  0  0  0  0  0  0
    0.0000    0.0000    0.0000 C   0  0  0  0  0  0  0  0  0  0  0  0
    0.0000    0.0000    0.0000 O   0  0  0  0  0  0  0  0  0  0  0  0
    0.0000    0.0000    0.0000 C   0  0  0  0  0  0  0  0  0  0  0  0
    0.0000    0.0000    0.0000 C   0  0  0  0  0  0  0  0  0  0  0  0
    0.0000    0.0000    0.0000 C   0  0  0  0  0  0  0  0  0  0  0  0
  1  2  2  0
  2  3  1  0
  3  4  1  0
  4  5  2  0
  5  6  1  0
  6  7  2  0
  7  8  1  0
  8  9  1  0
  9 10  2  0
 10 11  1  0
 11 12  2  0
 12 13  1  0
 13 14  2  0
 14 15  1  0
 15 16  2  0
 16 17  1  0
 17 18  2  0
 18 19  1  0
 15 20  1  0
 20 21  1  0
 21 22  1  0
 22 23  1  0
 23 24  1  0
 24 25  1  0
 23 26  1  0
 26 27  1  0
 27 28  1  0
 28 29  1  0
 29 30  1  0
 30 31  1  0
 10 32  1  0
 32 33  2  0
  2 34  1  0
 34 35  1  0
 35 36  1  0
 36 37  2  0
 37 38  1  0
 33  4  1  0
 32  7  1  0
 19 11  1  0
 18 13  1  0
 25 20  1  0
 31 26  1  0
 38 34  2  0
M  END
>  <pIC50>  (99) 
6.82

>  <ChEMBL_ID>  (99) 
CHEMBL377463

>  <document_journal>  (99) 
Bioorg. Med. Chem. Lett.

>  <bao_endpoint>  (99) 
BAO_0000190

>  <potential_duplicate>  (99) 
False

>  <uo_units>  (99) 
UO_0000065

>  <canonical_smiles>  (99) 
O=C(Nc1ccc2[nH]nc(c3nc4cc(ccc4[nH]3)N5CCC(CC5)N6CCCCC6)c2c1)c7occc7

>  <parent_molecule_chembl_id>  (99) 
CHEMBL377463

>  <assay_type>  (99) 
B

>  <src_id>  (99) 
1

>  <ligand_efficiency>  (99) 
{u'le': u'0.25', u'bei': u'13.39', u'sei': u'6.43', u'lle': u'2.11'}

>  <standard_flag>  (99) 
True

>  <molecule_chembl_id>  (99) 
CHEMBL377463

>  <target_organism>  (99) 
Homo sapiens

>  <standard_units>  (99) 
nM

>  <record_id>  (99) 
498330

>  <document_chembl_id>  (99) 
CHEMBL1137421

>  <bao_format>  (99) 
BAO_0000357

>  <data_validity_description>  (99) 
None

>  <activity_id>  (99) 
1735294

>  <standard_type>  (99) 
IC50

>  <target_chembl_id>  (99) 
CHEMBL1862

>  <data_validity_comment>  (99) 
None

>  <published_value>  (99) 
0.15

>  <document_year>  (99) 
2006

>  <target_pref_name>  (99) 
Tyrosine-protein kinase ABL

>  <assay_chembl_id>  (99) 
CHEMBL871418

>  <standard_relation>  (99) 
=

>  <assay_description>  (99) 
Inhibition of c-ABL

>  <published_relation>  (99) 
=

>  <standard_value>  (99) 
150

>  <qudt_units>  (99) 
http://www.openphacts.org/units/Nanomolar

>  <target_tax_id>  (99) 
9606

>  <bao_label>  (99) 
single protein format

>  <published_units>  (99) 
uM

>  <pchembl_value>  (99) 
6.82

>  <published_type>  (99) 
IC50

>  <activity_comment>  (99) 
None

$$$$

     RDKit          

 38 43  0  0  0  0  0  0  0  0999 V2000
    0.0000    0.0000    0.0000 C   0  0  0  0  0  0  0  0  0  0  0  0
    0.0000    0.0000    0.0000 C   0  0  0  0  0  0  0  0  0  0  0  0
    0.0000    0.0000    0.0000 C   0  0  0  0  0  0  0  0  0  0  0  0
    0.0000    0.0000    0.0000 C   0  0  0  0  0  0  0  0  0  0  0  0
    0.0000    0.0000    0.0000 N   0  0  0  0  0  0  0  0  0  0  0  0
    0.0000    0.0000    0.0000 C   0  0  0  0  0  0  0  0  0  0  0  0
    0.0000    0.0000    0.0000 O   0  0  0  0  0  0  0  0  0  0  0  0
    0.0000    0.0000    0.0000 N   0  0  0  0  0  0  0  0  0  0  0  0
    0.0000    0.0000    0.0000 C   0  0  0  0  0  0  0  0  0  0  0  0
    0.0000    0.0000    0.0000 C   0  0  0  0  0  0  0  0  0  0  0  0
    0.0000    0.0000    0.0000 C   0  0  0  0  0  0  0  0  0  0  0  0
    0.0000    0.0000    0.0000 C   0  0  0  0  0  0  0  0  0  0  0  0
    0.0000    0.0000    0.0000 N   0  0  0  0  0  0  0  0  0  0  0  0
    0.0000    0.0000    0.0000 N   0  0  0  0  0  0  0  0  0  0  0  0
    0.0000    0.0000    0.0000 C   0  0  0  0  0  0  0  0  0  0  0  0
    0.0000    0.0000    0.0000 C   0  0  0  0  0  0  0  0  0  0  0  0
    0.0000    0.0000    0.0000 N   0  0  0  0  0  0  0  0  0  0  0  0
    0.0000    0.0000    0.0000 C   0  0  0  0  0  0  0  0  0  0  0  0
    0.0000    0.0000    0.0000 C   0  0  0  0  0  0  0  0  0  0  0  0
    0.0000    0.0000    0.0000 C   0  0  0  0  0  0  0  0  0  0  0  0
    0.0000    0.0000    0.0000 C   0  0  0  0  0  0  0  0  0  0  0  0
    0.0000    0.0000    0.0000 C   0  0  0  0  0  0  0  0  0  0  0  0
    0.0000    0.0000    0.0000 C   0  0  0  0  0  0  0  0  0  0  0  0
    0.0000    0.0000    0.0000 N   0  0  0  0  0  0  0  0  0  0  0  0
    0.0000    0.0000    0.0000 N   0  0  0  0  0  0  0  0  0  0  0  0
    0.0000    0.0000    0.0000 C   0  0  0  0  0  0  0  0  0  0  0  0
    0.0000    0.0000    0.0000 C   0  0  0  0  0  0  0  0  0  0  0  0
    0.0000    0.0000    0.0000 C   0  0  0  0  0  0  0  0  0  0  0  0
    0.0000    0.0000    0.0000 C   0  0  0  0  0  0  0  0  0  0  0  0
    0.0000    0.0000    0.0000 C   0  0  0  0  0  0  0  0  0  0  0  0
    0.0000    0.0000    0.0000 N   0  0  0  0  0  0  0  0  0  0  0  0
    0.0000    0.0000    0.0000 C   0  0  0  0  0  0  0  0  0  0  0  0
    0.0000    0.0000    0.0000 C   0  0  0  0  0  0  0  0  0  0  0  0
    0.0000    0.0000    0.0000 C   0  0  0  0  0  0  0  0  0  0  0  0
    0.0000    0.0000    0.0000 C   0  0  0  0  0  0  0  0  0  0  0  0
    0.0000    0.0000    0.0000 C   0  0  0  0  0  0  0  0  0  0  0  0
    0.0000    0.0000    0.0000 C   0  0  0  0  0  0  0  0  0  0  0  0
    0.0000    0.0000    0.0000 C   0  0  0  0  0  0  0  0  0  0  0  0
  1  2  1  0
  2  3  1  0
  2  4  1  0
  2  5  1  0
  5  6  1  0
  6  7  2  0
  6  8  1  0
  8  9  1  0
  9 10  2  0
 10 11  1  0
 11 12  2  0
 12 13  1  0
 13 14  1  0
 14 15  2  0
 15 16  1  0
 16 17  2  0
 17 18  1  0
 18 19  2  0
 19 20  1  0
 20 21  2  0
 21 22  1  0
 22 23  2  0
 23 24  1  0
 20 25  1  0
 25 26  1  0
 26 27  1  0
 27 28  1  0
 28 29  1  0
 29 30  1  0
 28 31  1  0
 31 32  1  0
 32 33  1  0
 33 34  1  0
 34 35  1  0
 35 36  1  0
 15 37  1  0
 37 38  2  0
 38  9  1  0
 37 12  1  0
 24 16  1  0
 23 18  1  0
 30 25  1  0
 36 31  1  0
M  END
>  <pIC50>  (100) 
7.52

>  <ChEMBL_ID>  (100) 
CHEMBL378024

>  <document_journal>  (100) 
Bioorg. Med. Chem. Lett.

>  <bao_endpoint>  (100) 
BAO_0000190

>  <potential_duplicate>  (100) 
False

>  <uo_units>  (100) 
UO_0000065

>  <canonical_smiles>  (100) 
CC(C)(C)NC(=O)Nc1ccc2[nH]nc(c3nc4cc(ccc4[nH]3)N5CCC(CC5)N6CCCCC6)c2c1

>  <parent_molecule_chembl_id>  (100) 
CHEMBL378024

>  <assay_type>  (100) 
B

>  <src_id>  (100) 
1

>  <ligand_efficiency>  (100) 
{u'le': u'0.27', u'bei': u'14.62', u'sei': u'7.17', u'lle': u'2.94'}

>  <standard_flag>  (100) 
True

>  <molecule_chembl_id>  (100) 
CHEMBL378024

>  <target_organism>  (100) 
Homo sapiens

>  <standard_units>  (100) 
nM

>  <record_id>  (100) 
498329

>  <document_chembl_id>  (100) 
CHEMBL1137421

>  <bao_format>  (100) 
BAO_0000357

>  <data_validity_description>  (100) 
None

>  <activity_id>  (100) 
1735296

>  <standard_type>  (100) 
IC50

>  <target_chembl_id>  (100) 
CHEMBL1862

>  <data_validity_comment>  (100) 
None

>  <published_value>  (100) 
0.03

>  <document_year>  (100) 
2006

>  <target_pref_name>  (100) 
Tyrosine-protein kinase ABL

>  <assay_chembl_id>  (100) 
CHEMBL871418

>  <standard_relation>  (100) 
=

>  <assay_description>  (100) 
Inhibition of c-ABL

>  <published_relation>  (100) 
=

>  <standard_value>  (100) 
30

>  <qudt_units>  (100) 
http://www.openphacts.org/units/Nanomolar

>  <target_tax_id>  (100) 
9606

>  <bao_label>  (100) 
single protein format

>  <published_units>  (100) 
uM

>  <pchembl_value>  (100) 
7.52

>  <published_type>  (100) 
IC50

>  <activity_comment>  (100) 
None

$$$$

     RDKit          

 44 51  0  0  0  0  0  0  0  0999 V2000
    0.0000    0.0000    0.0000 C   0  0  0  0  0  0  0  0  0  0  0  0
    0.0000    0.0000    0.0000 N   0  0  0  0  0  0  0  0  0  0  0  0
    0.0000    0.0000    0.0000 C   0  0  0  0  0  0  0  0  0  0  0  0
    0.0000    0.0000    0.0000 C   0  0  0  0  0  0  0  0  0  0  0  0
    0.0000    0.0000    0.0000 C   0  0  0  0  0  0  0  0  0  0  0  0
    0.0000    0.0000    0.0000 C   0  0  0  0  0  0  0  0  0  0  0  0
    0.0000    0.0000    0.0000 C   0  0  0  0  0  0  0  0  0  0  0  0
    0.0000    0.0000    0.0000 N   0  0  0  0  0  0  0  0  0  0  0  0
    0.0000    0.0000    0.0000 C   0  0  0  0  0  0  0  0  0  0  0  0
    0.0000    0.0000    0.0000 C   0  0  0  0  0  0  0  0  0  0  0  0
    0.0000    0.0000    0.0000 C   0  0  0  0  0  0  0  0  0  0  0  0
    0.0000    0.0000    0.0000 C   0  0  0  0  0  0  0  0  0  0  0  0
    0.0000    0.0000    0.0000 N   0  0  0  0  0  0  0  0  0  0  0  0
    0.0000    0.0000    0.0000 N   0  0  0  0  0  0  0  0  0  0  0  0
    0.0000    0.0000    0.0000 C   0  0  0  0  0  0  0  0  0  0  0  0
    0.0000    0.0000    0.0000 C   0  0  0  0  0  0  0  0  0  0  0  0
    0.0000    0.0000    0.0000 N   0  0  0  0  0  0  0  0  0  0  0  0
    0.0000    0.0000    0.0000 C   0  0  0  0  0  0  0  0  0  0  0  0
    0.0000    0.0000    0.0000 C   0  0  0  0  0  0  0  0  0  0  0  0
    0.0000    0.0000    0.0000 C   0  0  0  0  0  0  0  0  0  0  0  0
    0.0000    0.0000    0.0000 C   0  0  0  0  0  0  0  0  0  0  0  0
    0.0000    0.0000    0.0000 C   0  0  0  0  0  0  0  0  0  0  0  0
    0.0000    0.0000    0.0000 C   0  0  0  0  0  0  0  0  0  0  0  0
    0.0000    0.0000    0.0000 N   0  0  0  0  0  0  0  0  0  0  0  0
    0.0000    0.0000    0.0000 N   0  0  0  0  0  0  0  0  0  0  0  0
    0.0000    0.0000    0.0000 C   0  0  0  0  0  0  0  0  0  0  0  0
    0.0000    0.0000    0.0000 C   0  0  0  0  0  0  0  0  0  0  0  0
    0.0000    0.0000    0.0000 C   0  0  0  0  0  0  0  0  0  0  0  0
    0.0000    0.0000    0.0000 C   0  0  0  0  0  0  0  0  0  0  0  0
    0.0000    0.0000    0.0000 C   0  0  0  0  0  0  0  0  0  0  0  0
    0.0000    0.0000    0.0000 N   0  0  0  0  0  0  0  0  0  0  0  0
    0.0000    0.0000    0.0000 C   0  0  0  0  0  0  0  0  0  0  0  0
    0.0000    0.0000    0.0000 C   0  0  0  0  0  0  0  0  0  0  0  0
    0.0000    0.0000    0.0000 C   0  0  0  0  0  0  0  0  0  0  0  0
    0.0000    0.0000    0.0000 C   0  0  0  0  0  0  0  0  0  0  0  0
    0.0000    0.0000    0.0000 C   0  0  0  0  0  0  0  0  0  0  0  0
    0.0000    0.0000    0.0000 C   0  0  0  0  0  0  0  0  0  0  0  0
    0.0000    0.0000    0.0000 C   0  0  0  0  0  0  0  0  0  0  0  0
    0.0000    0.0000    0.0000 C   0  0  0  0  0  0  0  0  0  0  0  0
    0.0000    0.0000    0.0000 C   0  0  0  0  0  0  0  0  0  0  0  0
    0.0000    0.0000    0.0000 C   0  0  0  0  0  0  0  0  0  0  0  0
    0.0000    0.0000    0.0000 C   0  0  0  0  0  0  0  0  0  0  0  0
    0.0000    0.0000    0.0000 C   0  0  0  0  0  0  0  0  0  0  0  0
    0.0000    0.0000    0.0000 C   0  0  0  0  0  0  0  0  0  0  0  0
  1  2  1  0
  2  3  1  0
  3  4  1  0
  4  5  1  0
  5  6  1  0
  6  7  1  0
  5  8  1  0
  8  9  1  0
  9 10  2  0
 10 11  1  0
 11 12  2  0
 12 13  1  0
 13 14  1  0
 14 15  2  0
 15 16  1  0
 16 17  2  0
 17 18  1  0
 18 19  2  0
 19 20  1  0
 20 21  2  0
 21 22  1  0
 22 23  2  0
 23 24  1  0
 20 25  1  0
 25 26  1  0
 26 27  1  0
 27 28  1  0
 28 29  1  0
 29 30  1  0
 28 31  1  0
 31 32  1  0
 32 33  1  0
 33 34  1  0
 34 35  1  0
 35 36  1  0
 15 37  1  0
 37 38  2  0
  1 39  1  0
 39 40  2  0
 40 41  1  0
 41 42  2  0
 42 43  1  0
 43 44  2  0
  7  2  1  0
 38  9  1  0
 37 12  1  0
 24 16  1  0
 23 18  1  0
 30 25  1  0
 36 31  1  0
 44 39  1  0
M  END
>  <pIC50>  (101) 
8.16

>  <ChEMBL_ID>  (101) 
CHEMBL209753

>  <document_journal>  (101) 
Bioorg. Med. Chem. Lett.

>  <bao_endpoint>  (101) 
BAO_0000190

>  <potential_duplicate>  (101) 
False

>  <uo_units>  (101) 
UO_0000065

>  <canonical_smiles>  (101) 
C(N1CCC(CC1)Nc2ccc3[nH]nc(c4nc5cc(ccc5[nH]4)N6CCC(CC6)N7CCCCC7)c3c2)c8ccccc8

>  <parent_molecule_chembl_id>  (101) 
CHEMBL209753

>  <assay_type>  (101) 
B

>  <src_id>  (101) 
1

>  <ligand_efficiency>  (101) 
{u'le': u'0.25', u'bei': u'13.85', u'sei': u'10.31', u'lle': u'2.11'}

>  <standard_flag>  (101) 
True

>  <molecule_chembl_id>  (101) 
CHEMBL209753

>  <target_organism>  (101) 
Homo sapiens

>  <standard_units>  (101) 
nM

>  <record_id>  (101) 
498328

>  <document_chembl_id>  (101) 
CHEMBL1137421

>  <bao_format>  (101) 
BAO_0000357

>  <data_validity_description>  (101) 
None

>  <activity_id>  (101) 
1735297

>  <standard_type>  (101) 
IC50

>  <target_chembl_id>  (101) 
CHEMBL1862

>  <data_validity_comment>  (101) 
None

>  <published_value>  (101) 
0.007

>  <document_year>  (101) 
2006

>  <target_pref_name>  (101) 
Tyrosine-protein kinase ABL

>  <assay_chembl_id>  (101) 
CHEMBL871418

>  <standard_relation>  (101) 
=

>  <assay_description>  (101) 
Inhibition of c-ABL

>  <published_relation>  (101) 
=

>  <standard_value>  (101) 
7

>  <qudt_units>  (101) 
http://www.openphacts.org/units/Nanomolar

>  <target_tax_id>  (101) 
9606

>  <bao_label>  (101) 
single protein format

>  <published_units>  (101) 
uM

>  <pchembl_value>  (101) 
8.16

>  <published_type>  (101) 
IC50

>  <activity_comment>  (101) 
None

$$$$

     RDKit          

 38 44  0  0  0  0  0  0  0  0999 V2000
    0.0000    0.0000    0.0000 C   0  0  0  0  0  0  0  0  0  0  0  0
    0.0000    0.0000    0.0000 N   0  0  0  0  0  0  0  0  0  0  0  0
    0.0000    0.0000    0.0000 C   0  0  0  0  0  0  0  0  0  0  0  0
    0.0000    0.0000    0.0000 C   0  0  0  0  0  0  0  0  0  0  0  0
    0.0000    0.0000    0.0000 C   0  0  0  0  0  0  0  0  0  0  0  0
    0.0000    0.0000    0.0000 C   0  0  0  0  0  0  0  0  0  0  0  0
    0.0000    0.0000    0.0000 N   0  0  0  0  0  0  0  0  0  0  0  0
    0.0000    0.0000    0.0000 N   0  0  0  0  0  0  0  0  0  0  0  0
    0.0000    0.0000    0.0000 C   0  0  0  0  0  0  0  0  0  0  0  0
    0.0000    0.0000    0.0000 C   0  0  0  0  0  0  0  0  0  0  0  0
    0.0000    0.0000    0.0000 N   0  0  0  0  0  0  0  0  0  0  0  0
    0.0000    0.0000    0.0000 C   0  0  0  0  0  0  0  0  0  0  0  0
    0.0000    0.0000    0.0000 C   0  0  0  0  0  0  0  0  0  0  0  0
    0.0000    0.0000    0.0000 C   0  0  0  0  0  0  0  0  0  0  0  0
    0.0000    0.0000    0.0000 C   0  0  0  0  0  0  0  0  0  0  0  0
    0.0000    0.0000    0.0000 C   0  0  0  0  0  0  0  0  0  0  0  0
    0.0000    0.0000    0.0000 C   0  0  0  0  0  0  0  0  0  0  0  0
    0.0000    0.0000    0.0000 N   0  0  0  0  0  0  0  0  0  0  0  0
    0.0000    0.0000    0.0000 N   0  0  0  0  0  0  0  0  0  0  0  0
    0.0000    0.0000    0.0000 C   0  0  0  0  0  0  0  0  0  0  0  0
    0.0000    0.0000    0.0000 C   0  0  0  0  0  0  0  0  0  0  0  0
    0.0000    0.0000    0.0000 C   0  0  0  0  0  0  0  0  0  0  0  0
    0.0000    0.0000    0.0000 C   0  0  0  0  0  0  0  0  0  0  0  0
    0.0000    0.0000    0.0000 C   0  0  0  0  0  0  0  0  0  0  0  0
    0.0000    0.0000    0.0000 N   0  0  0  0  0  0  0  0  0  0  0  0
    0.0000    0.0000    0.0000 C   0  0  0  0  0  0  0  0  0  0  0  0
    0.0000    0.0000    0.0000 C   0  0  0  0  0  0  0  0  0  0  0  0
    0.0000    0.0000    0.0000 C   0  0  0  0  0  0  0  0  0  0  0  0
    0.0000    0.0000    0.0000 C   0  0  0  0  0  0  0  0  0  0  0  0
    0.0000    0.0000    0.0000 C   0  0  0  0  0  0  0  0  0  0  0  0
    0.0000    0.0000    0.0000 C   0  0  0  0  0  0  0  0  0  0  0  0
    0.0000    0.0000    0.0000 C   0  0  0  0  0  0  0  0  0  0  0  0
    0.0000    0.0000    0.0000 C   0  0  0  0  0  0  0  0  0  0  0  0
    0.0000    0.0000    0.0000 C   0  0  0  0  0  0  0  0  0  0  0  0
    0.0000    0.0000    0.0000 C   0  0  0  0  0  0  0  0  0  0  0  0
    0.0000    0.0000    0.0000 C   0  0  0  0  0  0  0  0  0  0  0  0
    0.0000    0.0000    0.0000 C   0  0  0  0  0  0  0  0  0  0  0  0
    0.0000    0.0000    0.0000 C   0  0  0  0  0  0  0  0  0  0  0  0
  1  2  1  0
  2  3  1  0
  3  4  2  0
  4  5  1  0
  5  6  2  0
  6  7  1  0
  7  8  1  0
  8  9  2  0
  9 10  1  0
 10 11  2  0
 11 12  1  0
 12 13  2  0
 13 14  1  0
 14 15  2  0
 15 16  1  0
 16 17  2  0
 17 18  1  0
 14 19  1  0
 19 20  1  0
 20 21  1  0
 21 22  1  0
 22 23  1  0
 23 24  1  0
 22 25  1  0
 25 26  1  0
 26 27  1  0
 27 28  1  0
 28 29  1  0
 29 30  1  0
  9 31  1  0
 31 32  2  0
  1 33  1  0
 33 34  2  0
 34 35  1  0
 35 36  2  0
 36 37  1  0
 37 38  2  0
 32  3  1  0
 31  6  1  0
 18 10  1  0
 17 12  1  0
 24 19  1  0
 30 25  1  0
 38 33  1  0
M  END
>  <pIC50>  (102) 
6.89

>  <ChEMBL_ID>  (102) 
CHEMBL384213

>  <document_journal>  (102) 
Bioorg. Med. Chem. Lett.

>  <bao_endpoint>  (102) 
BAO_0000190

>  <potential_duplicate>  (102) 
False

>  <uo_units>  (102) 
UO_0000065

>  <canonical_smiles>  (102) 
C(Nc1ccc2[nH]nc(c3nc4cc(ccc4[nH]3)N5CCC(CC5)N6CCCCC6)c2c1)c7ccccc7

>  <parent_molecule_chembl_id>  (102) 
CHEMBL384213

>  <assay_type>  (102) 
B

>  <src_id>  (102) 
1

>  <ligand_efficiency>  (102) 
{u'le': u'0.25', u'bei': u'13.62', u'sei': u'9.08', u'lle': u'0.96'}

>  <standard_flag>  (102) 
True

>  <molecule_chembl_id>  (102) 
CHEMBL384213

>  <target_organism>  (102) 
Homo sapiens

>  <standard_units>  (102) 
nM

>  <record_id>  (102) 
498327

>  <document_chembl_id>  (102) 
CHEMBL1137421

>  <bao_format>  (102) 
BAO_0000357

>  <data_validity_description>  (102) 
None

>  <activity_id>  (102) 
1735300

>  <standard_type>  (102) 
IC50

>  <target_chembl_id>  (102) 
CHEMBL1862

>  <data_validity_comment>  (102) 
None

>  <published_value>  (102) 
0.13

>  <document_year>  (102) 
2006

>  <target_pref_name>  (102) 
Tyrosine-protein kinase ABL

>  <assay_chembl_id>  (102) 
CHEMBL871418

>  <standard_relation>  (102) 
=

>  <assay_description>  (102) 
Inhibition of c-ABL

>  <published_relation>  (102) 
=

>  <standard_value>  (102) 
130

>  <qudt_units>  (102) 
http://www.openphacts.org/units/Nanomolar

>  <target_tax_id>  (102) 
9606

>  <bao_label>  (102) 
single protein format

>  <published_units>  (102) 
uM

>  <pchembl_value>  (102) 
6.89

>  <published_type>  (102) 
IC50

>  <activity_comment>  (102) 
None

$$$$

     RDKit          

 39 45  0  0  0  0  0  0  0  0999 V2000
    0.0000    0.0000    0.0000 C   0  0  0  0  0  0  0  0  0  0  0  0
    0.0000    0.0000    0.0000 O   0  0  0  0  0  0  0  0  0  0  0  0
    0.0000    0.0000    0.0000 C   0  0  0  0  0  0  0  0  0  0  0  0
    0.0000    0.0000    0.0000 C   0  0  0  0  0  0  0  0  0  0  0  0
    0.0000    0.0000    0.0000 C   0  0  0  0  0  0  0  0  0  0  0  0
    0.0000    0.0000    0.0000 C   0  0  0  0  0  0  0  0  0  0  0  0
    0.0000    0.0000    0.0000 O   0  0  0  0  0  0  0  0  0  0  0  0
    0.0000    0.0000    0.0000 C   0  0  0  0  0  0  0  0  0  0  0  0
    0.0000    0.0000    0.0000 C   0  0  0  0  0  0  0  0  0  0  0  0
    0.0000    0.0000    0.0000 C   0  0  0  0  0  0  0  0  0  0  0  0
    0.0000    0.0000    0.0000 C   0  0  0  0  0  0  0  0  0  0  0  0
    0.0000    0.0000    0.0000 N   0  0  0  0  0  0  0  0  0  0  0  0
    0.0000    0.0000    0.0000 N   0  0  0  0  0  0  0  0  0  0  0  0
    0.0000    0.0000    0.0000 C   0  0  0  0  0  0  0  0  0  0  0  0
    0.0000    0.0000    0.0000 C   0  0  0  0  0  0  0  0  0  0  0  0
    0.0000    0.0000    0.0000 N   0  0  0  0  0  0  0  0  0  0  0  0
    0.0000    0.0000    0.0000 C   0  0  0  0  0  0  0  0  0  0  0  0
    0.0000    0.0000    0.0000 C   0  0  0  0  0  0  0  0  0  0  0  0
    0.0000    0.0000    0.0000 C   0  0  0  0  0  0  0  0  0  0  0  0
    0.0000    0.0000    0.0000 C   0  0  0  0  0  0  0  0  0  0  0  0
    0.0000    0.0000    0.0000 C   0  0  0  0  0  0  0  0  0  0  0  0
    0.0000    0.0000    0.0000 C   0  0  0  0  0  0  0  0  0  0  0  0
    0.0000    0.0000    0.0000 N   0  0  0  0  0  0  0  0  0  0  0  0
    0.0000    0.0000    0.0000 N   0  0  0  0  0  0  0  0  0  0  0  0
    0.0000    0.0000    0.0000 C   0  0  0  0  0  0  0  0  0  0  0  0
    0.0000    0.0000    0.0000 C   0  0  0  0  0  0  0  0  0  0  0  0
    0.0000    0.0000    0.0000 C   0  0  0  0  0  0  0  0  0  0  0  0
    0.0000    0.0000    0.0000 C   0  0  0  0  0  0  0  0  0  0  0  0
    0.0000    0.0000    0.0000 C   0  0  0  0  0  0  0  0  0  0  0  0
    0.0000    0.0000    0.0000 N   0  0  0  0  0  0  0  0  0  0  0  0
    0.0000    0.0000    0.0000 C   0  0  0  0  0  0  0  0  0  0  0  0
    0.0000    0.0000    0.0000 C   0  0  0  0  0  0  0  0  0  0  0  0
    0.0000    0.0000    0.0000 C   0  0  0  0  0  0  0  0  0  0  0  0
    0.0000    0.0000    0.0000 C   0  0  0  0  0  0  0  0  0  0  0  0
    0.0000    0.0000    0.0000 C   0  0  0  0  0  0  0  0  0  0  0  0
    0.0000    0.0000    0.0000 C   0  0  0  0  0  0  0  0  0  0  0  0
    0.0000    0.0000    0.0000 C   0  0  0  0  0  0  0  0  0  0  0  0
    0.0000    0.0000    0.0000 C   0  0  0  0  0  0  0  0  0  0  0  0
    0.0000    0.0000    0.0000 C   0  0  0  0  0  0  0  0  0  0  0  0
  1  2  1  0
  2  3  1  0
  3  4  2  0
  4  5  1  0
  5  6  2  0
  6  7  1  0
  7  8  1  0
  8  9  2  0
  9 10  1  0
 10 11  2  0
 11 12  1  0
 12 13  1  0
 13 14  2  0
 14 15  1  0
 15 16  2  0
 16 17  1  0
 17 18  2  0
 18 19  1  0
 19 20  2  0
 20 21  1  0
 21 22  2  0
 22 23  1  0
 19 24  1  0
 24 25  1  0
 25 26  1  0
 26 27  1  0
 27 28  1  0
 28 29  1  0
 27 30  1  0
 30 31  1  0
 31 32  1  0
 32 33  1  0
 33 34  1  0
 34 35  1  0
 14 36  1  0
 36 37  2  0
  6 38  1  0
 38 39  2  0
 39  3  1  0
 37  8  1  0
 36 11  1  0
 23 15  1  0
 22 17  1  0
 29 24  1  0
 35 30  1  0
M  END
>  <pIC50>  (103) 
6.66

>  <ChEMBL_ID>  (103) 
CHEMBL209266

>  <document_journal>  (103) 
Bioorg. Med. Chem. Lett.

>  <bao_endpoint>  (103) 
BAO_0000190

>  <potential_duplicate>  (103) 
False

>  <uo_units>  (103) 
UO_0000065

>  <canonical_smiles>  (103) 
COc1ccc(Oc2ccc3[nH]nc(c4nc5cc(ccc5[nH]4)N6CCC(CC6)N7CCCCC7)c3c2)cc1

>  <parent_molecule_chembl_id>  (103) 
CHEMBL209266

>  <assay_type>  (103) 
B

>  <src_id>  (103) 
1

>  <ligand_efficiency>  (103) 
{u'le': u'0.23', u'bei': u'12.74', u'sei': u'8.09', u'lle': u'0.58'}

>  <standard_flag>  (103) 
True

>  <molecule_chembl_id>  (103) 
CHEMBL209266

>  <target_organism>  (103) 
Homo sapiens

>  <standard_units>  (103) 
nM

>  <record_id>  (103) 
498326

>  <document_chembl_id>  (103) 
CHEMBL1137421

>  <bao_format>  (103) 
BAO_0000357

>  <data_validity_description>  (103) 
None

>  <activity_id>  (103) 
1735301

>  <standard_type>  (103) 
IC50

>  <target_chembl_id>  (103) 
CHEMBL1862

>  <data_validity_comment>  (103) 
None

>  <published_value>  (103) 
0.22

>  <document_year>  (103) 
2006

>  <target_pref_name>  (103) 
Tyrosine-protein kinase ABL

>  <assay_chembl_id>  (103) 
CHEMBL871418

>  <standard_relation>  (103) 
=

>  <assay_description>  (103) 
Inhibition of c-ABL

>  <published_relation>  (103) 
=

>  <standard_value>  (103) 
220

>  <qudt_units>  (103) 
http://www.openphacts.org/units/Nanomolar

>  <target_tax_id>  (103) 
9606

>  <bao_label>  (103) 
single protein format

>  <published_units>  (103) 
uM

>  <pchembl_value>  (103) 
6.66

>  <published_type>  (103) 
IC50

>  <activity_comment>  (103) 
None

$$$$

     RDKit          

 39 45  0  0  0  0  0  0  0  0999 V2000
    0.0000    0.0000    0.0000 C   0  0  0  0  0  0  0  0  0  0  0  0
    0.0000    0.0000    0.0000 O   0  0  0  0  0  0  0  0  0  0  0  0
    0.0000    0.0000    0.0000 C   0  0  0  0  0  0  0  0  0  0  0  0
    0.0000    0.0000    0.0000 C   0  0  0  0  0  0  0  0  0  0  0  0
    0.0000    0.0000    0.0000 C   0  0  0  0  0  0  0  0  0  0  0  0
    0.0000    0.0000    0.0000 C   0  0  0  0  0  0  0  0  0  0  0  0
    0.0000    0.0000    0.0000 C   0  0  0  0  0  0  0  0  0  0  0  0
    0.0000    0.0000    0.0000 O   0  0  0  0  0  0  0  0  0  0  0  0
    0.0000    0.0000    0.0000 C   0  0  0  0  0  0  0  0  0  0  0  0
    0.0000    0.0000    0.0000 C   0  0  0  0  0  0  0  0  0  0  0  0
    0.0000    0.0000    0.0000 C   0  0  0  0  0  0  0  0  0  0  0  0
    0.0000    0.0000    0.0000 C   0  0  0  0  0  0  0  0  0  0  0  0
    0.0000    0.0000    0.0000 N   0  0  0  0  0  0  0  0  0  0  0  0
    0.0000    0.0000    0.0000 N   0  0  0  0  0  0  0  0  0  0  0  0
    0.0000    0.0000    0.0000 C   0  0  0  0  0  0  0  0  0  0  0  0
    0.0000    0.0000    0.0000 C   0  0  0  0  0  0  0  0  0  0  0  0
    0.0000    0.0000    0.0000 N   0  0  0  0  0  0  0  0  0  0  0  0
    0.0000    0.0000    0.0000 C   0  0  0  0  0  0  0  0  0  0  0  0
    0.0000    0.0000    0.0000 C   0  0  0  0  0  0  0  0  0  0  0  0
    0.0000    0.0000    0.0000 C   0  0  0  0  0  0  0  0  0  0  0  0
    0.0000    0.0000    0.0000 C   0  0  0  0  0  0  0  0  0  0  0  0
    0.0000    0.0000    0.0000 C   0  0  0  0  0  0  0  0  0  0  0  0
    0.0000    0.0000    0.0000 C   0  0  0  0  0  0  0  0  0  0  0  0
    0.0000    0.0000    0.0000 N   0  0  0  0  0  0  0  0  0  0  0  0
    0.0000    0.0000    0.0000 N   0  0  0  0  0  0  0  0  0  0  0  0
    0.0000    0.0000    0.0000 C   0  0  0  0  0  0  0  0  0  0  0  0
    0.0000    0.0000    0.0000 C   0  0  0  0  0  0  0  0  0  0  0  0
    0.0000    0.0000    0.0000 C   0  0  0  0  0  0  0  0  0  0  0  0
    0.0000    0.0000    0.0000 C   0  0  0  0  0  0  0  0  0  0  0  0
    0.0000    0.0000    0.0000 C   0  0  0  0  0  0  0  0  0  0  0  0
    0.0000    0.0000    0.0000 N   0  0  0  0  0  0  0  0  0  0  0  0
    0.0000    0.0000    0.0000 C   0  0  0  0  0  0  0  0  0  0  0  0
    0.0000    0.0000    0.0000 C   0  0  0  0  0  0  0  0  0  0  0  0
    0.0000    0.0000    0.0000 C   0  0  0  0  0  0  0  0  0  0  0  0
    0.0000    0.0000    0.0000 C   0  0  0  0  0  0  0  0  0  0  0  0
    0.0000    0.0000    0.0000 C   0  0  0  0  0  0  0  0  0  0  0  0
    0.0000    0.0000    0.0000 C   0  0  0  0  0  0  0  0  0  0  0  0
    0.0000    0.0000    0.0000 C   0  0  0  0  0  0  0  0  0  0  0  0
    0.0000    0.0000    0.0000 C   0  0  0  0  0  0  0  0  0  0  0  0
  1  2  1  0
  2  3  1  0
  3  4  2  0
  4  5  1  0
  5  6  2  0
  6  7  1  0
  7  8  1  0
  8  9  1  0
  9 10  2  0
 10 11  1  0
 11 12  2  0
 12 13  1  0
 13 14  1  0
 14 15  2  0
 15 16  1  0
 16 17  2  0
 17 18  1  0
 18 19  2  0
 19 20  1  0
 20 21  2  0
 21 22  1  0
 22 23  2  0
 23 24  1  0
 20 25  1  0
 25 26  1  0
 26 27  1  0
 27 28  1  0
 28 29  1  0
 29 30  1  0
 28 31  1  0
 31 32  1  0
 32 33  1  0
 33 34  1  0
 34 35  1  0
 35 36  1  0
 15 37  1  0
 37 38  2  0
  7 39  2  0
 39  3  1  0
 38  9  1  0
 37 12  1  0
 24 16  1  0
 23 18  1  0
 30 25  1  0
 36 31  1  0
M  END
>  <pIC50>  (104) 
7.22

>  <ChEMBL_ID>  (104) 
CHEMBL379987

>  <document_journal>  (104) 
Bioorg. Med. Chem. Lett.

>  <bao_endpoint>  (104) 
BAO_0000190

>  <potential_duplicate>  (104) 
False

>  <uo_units>  (104) 
UO_0000065

>  <canonical_smiles>  (104) 
COc1cccc(Oc2ccc3[nH]nc(c4nc5cc(ccc5[nH]4)N6CCC(CC6)N7CCCCC7)c3c2)c1

>  <parent_molecule_chembl_id>  (104) 
CHEMBL379987

>  <assay_type>  (104) 
B

>  <src_id>  (104) 
1

>  <ligand_efficiency>  (104) 
{u'le': u'0.25', u'bei': u'13.82', u'sei': u'8.78', u'lle': u'1.14'}

>  <standard_flag>  (104) 
True

>  <molecule_chembl_id>  (104) 
CHEMBL379987

>  <target_organism>  (104) 
Homo sapiens

>  <standard_units>  (104) 
nM

>  <record_id>  (104) 
498325

>  <document_chembl_id>  (104) 
CHEMBL1137421

>  <bao_format>  (104) 
BAO_0000357

>  <data_validity_description>  (104) 
None

>  <activity_id>  (104) 
1735302

>  <standard_type>  (104) 
IC50

>  <target_chembl_id>  (104) 
CHEMBL1862

>  <data_validity_comment>  (104) 
None

>  <published_value>  (104) 
0.06

>  <document_year>  (104) 
2006

>  <target_pref_name>  (104) 
Tyrosine-protein kinase ABL

>  <assay_chembl_id>  (104) 
CHEMBL871418

>  <standard_relation>  (104) 
=

>  <assay_description>  (104) 
Inhibition of c-ABL

>  <published_relation>  (104) 
=

>  <standard_value>  (104) 
60

>  <qudt_units>  (104) 
http://www.openphacts.org/units/Nanomolar

>  <target_tax_id>  (104) 
9606

>  <bao_label>  (104) 
single protein format

>  <published_units>  (104) 
uM

>  <pchembl_value>  (104) 
7.22

>  <published_type>  (104) 
IC50

>  <activity_comment>  (104) 
None

$$$$

     RDKit          

 39 45  0  0  0  0  0  0  0  0999 V2000
    0.0000    0.0000    0.0000 C   0  0  0  0  0  0  0  0  0  0  0  0
    0.0000    0.0000    0.0000 O   0  0  0  0  0  0  0  0  0  0  0  0
    0.0000    0.0000    0.0000 C   0  0  0  0  0  0  0  0  0  0  0  0
    0.0000    0.0000    0.0000 C   0  0  0  0  0  0  0  0  0  0  0  0
    0.0000    0.0000    0.0000 C   0  0  0  0  0  0  0  0  0  0  0  0
    0.0000    0.0000    0.0000 C   0  0  0  0  0  0  0  0  0  0  0  0
    0.0000    0.0000    0.0000 C   0  0  0  0  0  0  0  0  0  0  0  0
    0.0000    0.0000    0.0000 C   0  0  0  0  0  0  0  0  0  0  0  0
    0.0000    0.0000    0.0000 O   0  0  0  0  0  0  0  0  0  0  0  0
    0.0000    0.0000    0.0000 C   0  0  0  0  0  0  0  0  0  0  0  0
    0.0000    0.0000    0.0000 C   0  0  0  0  0  0  0  0  0  0  0  0
    0.0000    0.0000    0.0000 C   0  0  0  0  0  0  0  0  0  0  0  0
    0.0000    0.0000    0.0000 C   0  0  0  0  0  0  0  0  0  0  0  0
    0.0000    0.0000    0.0000 N   0  0  0  0  0  0  0  0  0  0  0  0
    0.0000    0.0000    0.0000 N   0  0  0  0  0  0  0  0  0  0  0  0
    0.0000    0.0000    0.0000 C   0  0  0  0  0  0  0  0  0  0  0  0
    0.0000    0.0000    0.0000 C   0  0  0  0  0  0  0  0  0  0  0  0
    0.0000    0.0000    0.0000 N   0  0  0  0  0  0  0  0  0  0  0  0
    0.0000    0.0000    0.0000 C   0  0  0  0  0  0  0  0  0  0  0  0
    0.0000    0.0000    0.0000 C   0  0  0  0  0  0  0  0  0  0  0  0
    0.0000    0.0000    0.0000 C   0  0  0  0  0  0  0  0  0  0  0  0
    0.0000    0.0000    0.0000 C   0  0  0  0  0  0  0  0  0  0  0  0
    0.0000    0.0000    0.0000 C   0  0  0  0  0  0  0  0  0  0  0  0
    0.0000    0.0000    0.0000 C   0  0  0  0  0  0  0  0  0  0  0  0
    0.0000    0.0000    0.0000 N   0  0  0  0  0  0  0  0  0  0  0  0
    0.0000    0.0000    0.0000 N   0  0  0  0  0  0  0  0  0  0  0  0
    0.0000    0.0000    0.0000 C   0  0  0  0  0  0  0  0  0  0  0  0
    0.0000    0.0000    0.0000 C   0  0  0  0  0  0  0  0  0  0  0  0
    0.0000    0.0000    0.0000 C   0  0  0  0  0  0  0  0  0  0  0  0
    0.0000    0.0000    0.0000 C   0  0  0  0  0  0  0  0  0  0  0  0
    0.0000    0.0000    0.0000 C   0  0  0  0  0  0  0  0  0  0  0  0
    0.0000    0.0000    0.0000 N   0  0  0  0  0  0  0  0  0  0  0  0
    0.0000    0.0000    0.0000 C   0  0  0  0  0  0  0  0  0  0  0  0
    0.0000    0.0000    0.0000 C   0  0  0  0  0  0  0  0  0  0  0  0
    0.0000    0.0000    0.0000 C   0  0  0  0  0  0  0  0  0  0  0  0
    0.0000    0.0000    0.0000 C   0  0  0  0  0  0  0  0  0  0  0  0
    0.0000    0.0000    0.0000 C   0  0  0  0  0  0  0  0  0  0  0  0
    0.0000    0.0000    0.0000 C   0  0  0  0  0  0  0  0  0  0  0  0
    0.0000    0.0000    0.0000 C   0  0  0  0  0  0  0  0  0  0  0  0
  1  2  1  0
  2  3  1  0
  3  4  2  0
  4  5  1  0
  5  6  2  0
  6  7  1  0
  7  8  2  0
  8  9  1  0
  9 10  1  0
 10 11  2  0
 11 12  1  0
 12 13  2  0
 13 14  1  0
 14 15  1  0
 15 16  2  0
 16 17  1  0
 17 18  2  0
 18 19  1  0
 19 20  2  0
 20 21  1  0
 21 22  2  0
 22 23  1  0
 23 24  2  0
 24 25  1  0
 21 26  1  0
 26 27  1  0
 27 28  1  0
 28 29  1  0
 29 30  1  0
 30 31  1  0
 29 32  1  0
 32 33  1  0
 33 34  1  0
 34 35  1  0
 35 36  1  0
 36 37  1  0
 16 38  1  0
 38 39  2  0
  8  3  1  0
 39 10  1  0
 38 13  1  0
 25 17  1  0
 24 19  1  0
 31 26  1  0
 37 32  1  0
M  END
>  <pIC50>  (105) 
7.7

>  <ChEMBL_ID>  (105) 
CHEMBL211508

>  <document_journal>  (105) 
Bioorg. Med. Chem. Lett.

>  <bao_endpoint>  (105) 
BAO_0000190

>  <potential_duplicate>  (105) 
False

>  <uo_units>  (105) 
UO_0000065

>  <canonical_smiles>  (105) 
COc1ccccc1Oc2ccc3[nH]nc(c4nc5cc(ccc5[nH]4)N6CCC(CC6)N7CCCCC7)c3c2

>  <parent_molecule_chembl_id>  (105) 
CHEMBL211508

>  <assay_type>  (105) 
B

>  <src_id>  (105) 
1

>  <ligand_efficiency>  (105) 
{u'le': u'0.27', u'bei': u'14.73', u'sei': u'9.35', u'lle': u'1.62'}

>  <standard_flag>  (105) 
True

>  <molecule_chembl_id>  (105) 
CHEMBL211508

>  <target_organism>  (105) 
Homo sapiens

>  <standard_units>  (105) 
nM

>  <record_id>  (105) 
498324

>  <document_chembl_id>  (105) 
CHEMBL1137421

>  <bao_format>  (105) 
BAO_0000357

>  <data_validity_description>  (105) 
None

>  <activity_id>  (105) 
1735303

>  <standard_type>  (105) 
IC50

>  <target_chembl_id>  (105) 
CHEMBL1862

>  <data_validity_comment>  (105) 
None

>  <published_value>  (105) 
0.02

>  <document_year>  (105) 
2006

>  <target_pref_name>  (105) 
Tyrosine-protein kinase ABL

>  <assay_chembl_id>  (105) 
CHEMBL871418

>  <standard_relation>  (105) 
=

>  <assay_description>  (105) 
Inhibition of c-ABL

>  <published_relation>  (105) 
=

>  <standard_value>  (105) 
20

>  <qudt_units>  (105) 
http://www.openphacts.org/units/Nanomolar

>  <target_tax_id>  (105) 
9606

>  <bao_label>  (105) 
single protein format

>  <published_units>  (105) 
uM

>  <pchembl_value>  (105) 
7.7

>  <published_type>  (105) 
IC50

>  <activity_comment>  (105) 
None

$$$$

     RDKit          

 46 53  0  0  0  0  0  0  0  0999 V2000
    0.0000    0.0000    0.0000 C   0  0  0  0  0  0  0  0  0  0  0  0
    0.0000    0.0000    0.0000 O   0  0  0  0  0  0  0  0  0  0  0  0
    0.0000    0.0000    0.0000 C   0  0  0  0  0  0  0  0  0  0  0  0
    0.0000    0.0000    0.0000 C   0  0  0  0  0  0  0  0  0  0  0  0
    0.0000    0.0000    0.0000 C   0  0  0  0  0  0  0  0  0  0  0  0
    0.0000    0.0000    0.0000 N   0  0  0  0  0  0  0  0  0  0  0  0
    0.0000    0.0000    0.0000 N   0  0  0  0  0  0  0  0  0  0  0  0
    0.0000    0.0000    0.0000 C   0  0  0  0  0  0  0  0  0  0  0  0
    0.0000    0.0000    0.0000 C   0  0  0  0  0  0  0  0  0  0  0  0
    0.0000    0.0000    0.0000 N   0  0  0  0  0  0  0  0  0  0  0  0
    0.0000    0.0000    0.0000 C   0  0  0  0  0  0  0  0  0  0  0  0
    0.0000    0.0000    0.0000 C   0  0  0  0  0  0  0  0  0  0  0  0
    0.0000    0.0000    0.0000 C   0  0  0  0  0  0  0  0  0  0  0  0
    0.0000    0.0000    0.0000 C   0  0  0  0  0  0  0  0  0  0  0  0
    0.0000    0.0000    0.0000 C   0  0  0  0  0  0  0  0  0  0  0  0
    0.0000    0.0000    0.0000 C   0  0  0  0  0  0  0  0  0  0  0  0
    0.0000    0.0000    0.0000 N   0  0  0  0  0  0  0  0  0  0  0  0
    0.0000    0.0000    0.0000 N   0  0  0  0  0  0  0  0  0  0  0  0
    0.0000    0.0000    0.0000 C   0  0  0  0  0  0  0  0  0  0  0  0
    0.0000    0.0000    0.0000 C   0  0  0  0  0  0  0  0  0  0  0  0
    0.0000    0.0000    0.0000 C   0  0  0  0  0  0  0  0  0  0  0  0
    0.0000    0.0000    0.0000 C   0  0  0  0  0  0  0  0  0  0  0  0
    0.0000    0.0000    0.0000 C   0  0  0  0  0  0  0  0  0  0  0  0
    0.0000    0.0000    0.0000 N   0  0  0  0  0  0  0  0  0  0  0  0
    0.0000    0.0000    0.0000 C   0  0  0  0  0  0  0  0  0  0  0  0
    0.0000    0.0000    0.0000 C   0  0  0  0  0  0  0  0  0  0  0  0
    0.0000    0.0000    0.0000 C   0  0  0  0  0  0  0  0  0  0  0  0
    0.0000    0.0000    0.0000 C   0  0  0  0  0  0  0  0  0  0  0  0
    0.0000    0.0000    0.0000 C   0  0  0  0  0  0  0  0  0  0  0  0
    0.0000    0.0000    0.0000 C   0  0  0  0  0  0  0  0  0  0  0  0
    0.0000    0.0000    0.0000 C   0  0  0  0  0  0  0  0  0  0  0  0
    0.0000    0.0000    0.0000 C   0  0  0  0  0  0  0  0  0  0  0  0
    0.0000    0.0000    0.0000 O   0  0  0  0  0  0  0  0  0  0  0  0
    0.0000    0.0000    0.0000 C   0  0  0  0  0  0  0  0  0  0  0  0
    0.0000    0.0000    0.0000 C   0  0  0  0  0  0  0  0  0  0  0  0
    0.0000    0.0000    0.0000 C   0  0  0  0  0  0  0  0  0  0  0  0
    0.0000    0.0000    0.0000 C   0  0  0  0  0  0  0  0  0  0  0  0
    0.0000    0.0000    0.0000 C   0  0  0  0  0  0  0  0  0  0  0  0
    0.0000    0.0000    0.0000 C   0  0  0  0  0  0  0  0  0  0  0  0
    0.0000    0.0000    0.0000 C   0  0  0  0  0  0  0  0  0  0  0  0
    0.0000    0.0000    0.0000 C   0  0  0  0  0  0  0  0  0  0  0  0
    0.0000    0.0000    0.0000 C   0  0  0  0  0  0  0  0  0  0  0  0
    0.0000    0.0000    0.0000 C   0  0  0  0  0  0  0  0  0  0  0  0
    0.0000    0.0000    0.0000 C   0  0  0  0  0  0  0  0  0  0  0  0
    0.0000    0.0000    0.0000 C   0  0  0  0  0  0  0  0  0  0  0  0
    0.0000    0.0000    0.0000 C   0  0  0  0  0  0  0  0  0  0  0  0
  1  2  1  0
  2  3  1  0
  3  4  2  0
  4  5  1  0
  5  6  1  0
  6  7  1  0
  7  8  2  0
  8  9  1  0
  9 10  2  0
 10 11  1  0
 11 12  2  0
 12 13  1  0
 13 14  2  0
 14 15  1  0
 15 16  2  0
 16 17  1  0
 13 18  1  0
 18 19  1  0
 19 20  1  0
 20 21  1  0
 21 22  1  0
 22 23  1  0
 21 24  1  0
 24 25  1  0
 25 26  1  0
 26 27  1  0
 27 28  1  0
 28 29  1  0
  8 30  1  0
 30 31  1  0
 31 32  2  0
 32 33  1  0
 33 34  1  0
 34 35  1  0
 35 36  2  0
 36 37  1  0
 37 38  2  0
 38 39  1  0
 39 40  2  0
  1 41  1  0
 41 42  2  0
 42 43  1  0
 43 44  2  0
 44 45  1  0
 45 46  2  0
 32  3  1  0
 30  5  2  0
 17  9  1  0
 16 11  1  0
 23 18  1  0
 29 24  1  0
 40 35  1  0
 46 41  1  0
M  END
>  <pIC50>  (106) 
6.05

>  <ChEMBL_ID>  (106) 
CHEMBL212673

>  <document_journal>  (106) 
Bioorg. Med. Chem. Lett.

>  <bao_endpoint>  (106) 
BAO_0000190

>  <potential_duplicate>  (106) 
False

>  <uo_units>  (106) 
UO_0000065

>  <canonical_smiles>  (106) 
C(Oc1cc2[nH]nc(c3nc4cc(ccc4[nH]3)N5CCC(CC5)N6CCCCC6)c2cc1OCc7ccccc7)c8ccccc8

>  <parent_molecule_chembl_id>  (106) 
CHEMBL212673

>  <assay_type>  (106) 
B

>  <src_id>  (106) 
1

>  <ligand_efficiency>  (106) 
{u'le': u'0.18', u'bei': u'9.87', u'sei': u'7.35', u'lle': u'-1.62'}

>  <standard_flag>  (106) 
True

>  <molecule_chembl_id>  (106) 
CHEMBL212673

>  <target_organism>  (106) 
Homo sapiens

>  <standard_units>  (106) 
nM

>  <record_id>  (106) 
498333

>  <document_chembl_id>  (106) 
CHEMBL1137421

>  <bao_format>  (106) 
BAO_0000357

>  <data_validity_description>  (106) 
None

>  <activity_id>  (106) 
1735304

>  <standard_type>  (106) 
IC50

>  <target_chembl_id>  (106) 
CHEMBL1862

>  <data_validity_comment>  (106) 
None

>  <published_value>  (106) 
0.9

>  <document_year>  (106) 
2006

>  <target_pref_name>  (106) 
Tyrosine-protein kinase ABL

>  <assay_chembl_id>  (106) 
CHEMBL871418

>  <standard_relation>  (106) 
=

>  <assay_description>  (106) 
Inhibition of c-ABL

>  <published_relation>  (106) 
=

>  <standard_value>  (106) 
900

>  <qudt_units>  (106) 
http://www.openphacts.org/units/Nanomolar

>  <target_tax_id>  (106) 
9606

>  <bao_label>  (106) 
single protein format

>  <published_units>  (106) 
uM

>  <pchembl_value>  (106) 
6.05

>  <published_type>  (106) 
IC50

>  <activity_comment>  (106) 
None

$$$$

     RDKit          

 38 44  0  0  0  0  0  0  0  0999 V2000
    0.0000    0.0000    0.0000 C   0  0  0  0  0  0  0  0  0  0  0  0
    0.0000    0.0000    0.0000 O   0  0  0  0  0  0  0  0  0  0  0  0
    0.0000    0.0000    0.0000 C   0  0  0  0  0  0  0  0  0  0  0  0
    0.0000    0.0000    0.0000 C   0  0  0  0  0  0  0  0  0  0  0  0
    0.0000    0.0000    0.0000 C   0  0  0  0  0  0  0  0  0  0  0  0
    0.0000    0.0000    0.0000 C   0  0  0  0  0  0  0  0  0  0  0  0
    0.0000    0.0000    0.0000 C   0  0  0  0  0  0  0  0  0  0  0  0
    0.0000    0.0000    0.0000 N   0  0  0  0  0  0  0  0  0  0  0  0
    0.0000    0.0000    0.0000 N   0  0  0  0  0  0  0  0  0  0  0  0
    0.0000    0.0000    0.0000 C   0  0  0  0  0  0  0  0  0  0  0  0
    0.0000    0.0000    0.0000 C   0  0  0  0  0  0  0  0  0  0  0  0
    0.0000    0.0000    0.0000 C   0  0  0  0  0  0  0  0  0  0  0  0
    0.0000    0.0000    0.0000 N   0  0  0  0  0  0  0  0  0  0  0  0
    0.0000    0.0000    0.0000 C   0  0  0  0  0  0  0  0  0  0  0  0
    0.0000    0.0000    0.0000 C   0  0  0  0  0  0  0  0  0  0  0  0
    0.0000    0.0000    0.0000 C   0  0  0  0  0  0  0  0  0  0  0  0
    0.0000    0.0000    0.0000 C   0  0  0  0  0  0  0  0  0  0  0  0
    0.0000    0.0000    0.0000 C   0  0  0  0  0  0  0  0  0  0  0  0
    0.0000    0.0000    0.0000 C   0  0  0  0  0  0  0  0  0  0  0  0
    0.0000    0.0000    0.0000 N   0  0  0  0  0  0  0  0  0  0  0  0
    0.0000    0.0000    0.0000 N   0  0  0  0  0  0  0  0  0  0  0  0
    0.0000    0.0000    0.0000 C   0  0  0  0  0  0  0  0  0  0  0  0
    0.0000    0.0000    0.0000 C   0  0  0  0  0  0  0  0  0  0  0  0
    0.0000    0.0000    0.0000 C   0  0  0  0  0  0  0  0  0  0  0  0
    0.0000    0.0000    0.0000 C   0  0  0  0  0  0  0  0  0  0  0  0
    0.0000    0.0000    0.0000 C   0  0  0  0  0  0  0  0  0  0  0  0
    0.0000    0.0000    0.0000 N   0  0  0  0  0  0  0  0  0  0  0  0
    0.0000    0.0000    0.0000 C   0  0  0  0  0  0  0  0  0  0  0  0
    0.0000    0.0000    0.0000 C   0  0  0  0  0  0  0  0  0  0  0  0
    0.0000    0.0000    0.0000 C   0  0  0  0  0  0  0  0  0  0  0  0
    0.0000    0.0000    0.0000 C   0  0  0  0  0  0  0  0  0  0  0  0
    0.0000    0.0000    0.0000 C   0  0  0  0  0  0  0  0  0  0  0  0
    0.0000    0.0000    0.0000 C   0  0  0  0  0  0  0  0  0  0  0  0
    0.0000    0.0000    0.0000 C   0  0  0  0  0  0  0  0  0  0  0  0
    0.0000    0.0000    0.0000 C   0  0  0  0  0  0  0  0  0  0  0  0
    0.0000    0.0000    0.0000 C   0  0  0  0  0  0  0  0  0  0  0  0
    0.0000    0.0000    0.0000 C   0  0  0  0  0  0  0  0  0  0  0  0
    0.0000    0.0000    0.0000 C   0  0  0  0  0  0  0  0  0  0  0  0
  1  2  1  0
  2  3  1  0
  3  4  1  0
  4  5  2  0
  5  6  1  0
  6  7  2  0
  7  8  1  0
  8  9  1  0
  9 10  2  0
 10 11  1  0
  7 12  1  0
 12 13  2  0
 13 14  1  0
 14 15  2  0
 15 16  1  0
 16 17  2  0
 17 18  1  0
 18 19  2  0
 19 20  1  0
 16 21  1  0
 21 22  1  0
 22 23  1  0
 23 24  1  0
 24 25  1  0
 25 26  1  0
 24 27  1  0
 27 28  1  0
 28 29  1  0
 29 30  1  0
 30 31  1  0
 31 32  1  0
  1 33  1  0
 33 34  2  0
 34 35  1  0
 35 36  2  0
 36 37  1  0
 37 38  2  0
 11  3  2  0
 10  6  1  0
 20 12  1  0
 19 14  1  0
 26 21  1  0
 32 27  1  0
 38 33  1  0
M  END
>  <pIC50>  (107) 
6.7

>  <ChEMBL_ID>  (107) 
CHEMBL209704

>  <document_journal>  (107) 
Bioorg. Med. Chem. Lett.

>  <bao_endpoint>  (107) 
BAO_0000190

>  <potential_duplicate>  (107) 
False

>  <uo_units>  (107) 
UO_0000065

>  <canonical_smiles>  (107) 
C(Oc1ccc2c([nH]nc2c1)c3nc4cc(ccc4[nH]3)N5CCC(CC5)N6CCCCC6)c7ccccc7

>  <parent_molecule_chembl_id>  (107) 
CHEMBL209704

>  <assay_type>  (107) 
B

>  <src_id>  (107) 
1

>  <ligand_efficiency>  (107) 
{u'le': u'0.24', u'bei': u'13.22', u'sei': u'9.17', u'lle': u'0.6'}

>  <standard_flag>  (107) 
True

>  <molecule_chembl_id>  (107) 
CHEMBL209704

>  <target_organism>  (107) 
Homo sapiens

>  <standard_units>  (107) 
nM

>  <record_id>  (107) 
498323

>  <document_chembl_id>  (107) 
CHEMBL1137421

>  <bao_format>  (107) 
BAO_0000357

>  <data_validity_description>  (107) 
None

>  <activity_id>  (107) 
1735305

>  <standard_type>  (107) 
IC50

>  <target_chembl_id>  (107) 
CHEMBL1862

>  <data_validity_comment>  (107) 
None

>  <published_value>  (107) 
0.2

>  <document_year>  (107) 
2006

>  <target_pref_name>  (107) 
Tyrosine-protein kinase ABL

>  <assay_chembl_id>  (107) 
CHEMBL871418

>  <standard_relation>  (107) 
=

>  <assay_description>  (107) 
Inhibition of c-ABL

>  <published_relation>  (107) 
=

>  <standard_value>  (107) 
200

>  <qudt_units>  (107) 
http://www.openphacts.org/units/Nanomolar

>  <target_tax_id>  (107) 
9606

>  <bao_label>  (107) 
single protein format

>  <published_units>  (107) 
uM

>  <pchembl_value>  (107) 
6.7

>  <published_type>  (107) 
IC50

>  <activity_comment>  (107) 
None

$$$$

     RDKit          

 40 46  0  0  0  0  0  0  0  0999 V2000
    0.0000    0.0000    0.0000 C   0  0  0  0  0  0  0  0  0  0  0  0
    0.0000    0.0000    0.0000 O   0  0  0  0  0  0  0  0  0  0  0  0
    0.0000    0.0000    0.0000 C   0  0  0  0  0  0  0  0  0  0  0  0
    0.0000    0.0000    0.0000 C   0  0  0  0  0  0  0  0  0  0  0  0
    0.0000    0.0000    0.0000 C   0  0  0  0  0  0  0  0  0  0  0  0
    0.0000    0.0000    0.0000 N   0  0  0  0  0  0  0  0  0  0  0  0
    0.0000    0.0000    0.0000 N   0  0  0  0  0  0  0  0  0  0  0  0
    0.0000    0.0000    0.0000 C   0  0  0  0  0  0  0  0  0  0  0  0
    0.0000    0.0000    0.0000 C   0  0  0  0  0  0  0  0  0  0  0  0
    0.0000    0.0000    0.0000 N   0  0  0  0  0  0  0  0  0  0  0  0
    0.0000    0.0000    0.0000 C   0  0  0  0  0  0  0  0  0  0  0  0
    0.0000    0.0000    0.0000 C   0  0  0  0  0  0  0  0  0  0  0  0
    0.0000    0.0000    0.0000 C   0  0  0  0  0  0  0  0  0  0  0  0
    0.0000    0.0000    0.0000 C   0  0  0  0  0  0  0  0  0  0  0  0
    0.0000    0.0000    0.0000 C   0  0  0  0  0  0  0  0  0  0  0  0
    0.0000    0.0000    0.0000 C   0  0  0  0  0  0  0  0  0  0  0  0
    0.0000    0.0000    0.0000 N   0  0  0  0  0  0  0  0  0  0  0  0
    0.0000    0.0000    0.0000 N   0  0  0  0  0  0  0  0  0  0  0  0
    0.0000    0.0000    0.0000 C   0  0  0  0  0  0  0  0  0  0  0  0
    0.0000    0.0000    0.0000 C   0  0  0  0  0  0  0  0  0  0  0  0
    0.0000    0.0000    0.0000 C   0  0  0  0  0  0  0  0  0  0  0  0
    0.0000    0.0000    0.0000 C   0  0  0  0  0  0  0  0  0  0  0  0
    0.0000    0.0000    0.0000 C   0  0  0  0  0  0  0  0  0  0  0  0
    0.0000    0.0000    0.0000 N   0  0  0  0  0  0  0  0  0  0  0  0
    0.0000    0.0000    0.0000 C   0  0  0  0  0  0  0  0  0  0  0  0
    0.0000    0.0000    0.0000 C   0  0  0  0  0  0  0  0  0  0  0  0
    0.0000    0.0000    0.0000 C   0  0  0  0  0  0  0  0  0  0  0  0
    0.0000    0.0000    0.0000 C   0  0  0  0  0  0  0  0  0  0  0  0
    0.0000    0.0000    0.0000 C   0  0  0  0  0  0  0  0  0  0  0  0
    0.0000    0.0000    0.0000 C   0  0  0  0  0  0  0  0  0  0  0  0
    0.0000    0.0000    0.0000 C   0  0  0  0  0  0  0  0  0  0  0  0
    0.0000    0.0000    0.0000 C   0  0  0  0  0  0  0  0  0  0  0  0
    0.0000    0.0000    0.0000 O   0  0  0  0  0  0  0  0  0  0  0  0
    0.0000    0.0000    0.0000 C   0  0  0  0  0  0  0  0  0  0  0  0
    0.0000    0.0000    0.0000 C   0  0  0  0  0  0  0  0  0  0  0  0
    0.0000    0.0000    0.0000 C   0  0  0  0  0  0  0  0  0  0  0  0
    0.0000    0.0000    0.0000 C   0  0  0  0  0  0  0  0  0  0  0  0
    0.0000    0.0000    0.0000 C   0  0  0  0  0  0  0  0  0  0  0  0
    0.0000    0.0000    0.0000 C   0  0  0  0  0  0  0  0  0  0  0  0
    0.0000    0.0000    0.0000 C   0  0  0  0  0  0  0  0  0  0  0  0
  1  2  1  0
  2  3  1  0
  3  4  2  0
  4  5  1  0
  5  6  1  0
  6  7  1  0
  7  8  2  0
  8  9  1  0
  9 10  2  0
 10 11  1  0
 11 12  2  0
 12 13  1  0
 13 14  2  0
 14 15  1  0
 15 16  2  0
 16 17  1  0
 13 18  1  0
 18 19  1  0
 19 20  1  0
 20 21  1  0
 21 22  1  0
 22 23  1  0
 21 24  1  0
 24 25  1  0
 25 26  1  0
 26 27  1  0
 27 28  1  0
 28 29  1  0
  8 30  1  0
 30 31  1  0
 31 32  2  0
 32 33  1  0
 33 34  1  0
 34 35  1  0
 35 36  2  0
 36 37  1  0
 37 38  2  0
 38 39  1  0
 39 40  2  0
 32  3  1  0
 30  5  2  0
 17  9  1  0
 16 11  1  0
 23 18  1  0
 29 24  1  0
 40 35  1  0
M  END
>  <pIC50>  (108) 
8.52

>  <ChEMBL_ID>  (108) 
CHEMBL210827

>  <document_journal>  (108) 
Bioorg. Med. Chem. Lett.

>  <bao_endpoint>  (108) 
BAO_0000190

>  <potential_duplicate>  (108) 
False

>  <uo_units>  (108) 
UO_0000065

>  <canonical_smiles>  (108) 
COc1cc2[nH]nc(c3nc4cc(ccc4[nH]3)N5CCC(CC5)N6CCCCC6)c2cc1OCc7ccccc7

>  <parent_molecule_chembl_id>  (108) 
CHEMBL210827

>  <assay_type>  (108) 
B

>  <src_id>  (108) 
1

>  <ligand_efficiency>  (108) 
{u'le': u'0.29', u'bei': u'15.88', u'sei': u'10.36', u'lle': u'2.44'}

>  <standard_flag>  (108) 
True

>  <molecule_chembl_id>  (108) 
CHEMBL210827

>  <target_organism>  (108) 
Homo sapiens

>  <standard_units>  (108) 
nM

>  <record_id>  (108) 
498322

>  <document_chembl_id>  (108) 
CHEMBL1137421

>  <bao_format>  (108) 
BAO_0000357

>  <data_validity_description>  (108) 
None

>  <activity_id>  (108) 
1735306

>  <standard_type>  (108) 
IC50

>  <target_chembl_id>  (108) 
CHEMBL1862

>  <data_validity_comment>  (108) 
None

>  <published_value>  (108) 
0.003

>  <document_year>  (108) 
2006

>  <target_pref_name>  (108) 
Tyrosine-protein kinase ABL

>  <assay_chembl_id>  (108) 
CHEMBL871418

>  <standard_relation>  (108) 
=

>  <assay_description>  (108) 
Inhibition of c-ABL

>  <published_relation>  (108) 
=

>  <standard_value>  (108) 
3

>  <qudt_units>  (108) 
http://www.openphacts.org/units/Nanomolar

>  <target_tax_id>  (108) 
9606

>  <bao_label>  (108) 
single protein format

>  <published_units>  (108) 
uM

>  <pchembl_value>  (108) 
8.52

>  <published_type>  (108) 
IC50

>  <activity_comment>  (108) 
None

$$$$

     RDKit          

 38 44  0  0  0  0  0  0  0  0999 V2000
    0.0000    0.0000    0.0000 C   0  0  0  0  0  0  0  0  0  0  0  0
    0.0000    0.0000    0.0000 O   0  0  0  0  0  0  0  0  0  0  0  0
    0.0000    0.0000    0.0000 C   0  0  0  0  0  0  0  0  0  0  0  0
    0.0000    0.0000    0.0000 C   0  0  0  0  0  0  0  0  0  0  0  0
    0.0000    0.0000    0.0000 C   0  0  0  0  0  0  0  0  0  0  0  0
    0.0000    0.0000    0.0000 C   0  0  0  0  0  0  0  0  0  0  0  0
    0.0000    0.0000    0.0000 N   0  0  0  0  0  0  0  0  0  0  0  0
    0.0000    0.0000    0.0000 N   0  0  0  0  0  0  0  0  0  0  0  0
    0.0000    0.0000    0.0000 C   0  0  0  0  0  0  0  0  0  0  0  0
    0.0000    0.0000    0.0000 C   0  0  0  0  0  0  0  0  0  0  0  0
    0.0000    0.0000    0.0000 N   0  0  0  0  0  0  0  0  0  0  0  0
    0.0000    0.0000    0.0000 C   0  0  0  0  0  0  0  0  0  0  0  0
    0.0000    0.0000    0.0000 C   0  0  0  0  0  0  0  0  0  0  0  0
    0.0000    0.0000    0.0000 C   0  0  0  0  0  0  0  0  0  0  0  0
    0.0000    0.0000    0.0000 C   0  0  0  0  0  0  0  0  0  0  0  0
    0.0000    0.0000    0.0000 C   0  0  0  0  0  0  0  0  0  0  0  0
    0.0000    0.0000    0.0000 C   0  0  0  0  0  0  0  0  0  0  0  0
    0.0000    0.0000    0.0000 N   0  0  0  0  0  0  0  0  0  0  0  0
    0.0000    0.0000    0.0000 N   0  0  0  0  0  0  0  0  0  0  0  0
    0.0000    0.0000    0.0000 C   0  0  0  0  0  0  0  0  0  0  0  0
    0.0000    0.0000    0.0000 C   0  0  0  0  0  0  0  0  0  0  0  0
    0.0000    0.0000    0.0000 C   0  0  0  0  0  0  0  0  0  0  0  0
    0.0000    0.0000    0.0000 C   0  0  0  0  0  0  0  0  0  0  0  0
    0.0000    0.0000    0.0000 C   0  0  0  0  0  0  0  0  0  0  0  0
    0.0000    0.0000    0.0000 N   0  0  0  0  0  0  0  0  0  0  0  0
    0.0000    0.0000    0.0000 C   0  0  0  0  0  0  0  0  0  0  0  0
    0.0000    0.0000    0.0000 C   0  0  0  0  0  0  0  0  0  0  0  0
    0.0000    0.0000    0.0000 C   0  0  0  0  0  0  0  0  0  0  0  0
    0.0000    0.0000    0.0000 C   0  0  0  0  0  0  0  0  0  0  0  0
    0.0000    0.0000    0.0000 C   0  0  0  0  0  0  0  0  0  0  0  0
    0.0000    0.0000    0.0000 C   0  0  0  0  0  0  0  0  0  0  0  0
    0.0000    0.0000    0.0000 C   0  0  0  0  0  0  0  0  0  0  0  0
    0.0000    0.0000    0.0000 C   0  0  0  0  0  0  0  0  0  0  0  0
    0.0000    0.0000    0.0000 C   0  0  0  0  0  0  0  0  0  0  0  0
    0.0000    0.0000    0.0000 C   0  0  0  0  0  0  0  0  0  0  0  0
    0.0000    0.0000    0.0000 C   0  0  0  0  0  0  0  0  0  0  0  0
    0.0000    0.0000    0.0000 C   0  0  0  0  0  0  0  0  0  0  0  0
    0.0000    0.0000    0.0000 C   0  0  0  0  0  0  0  0  0  0  0  0
  1  2  1  0
  2  3  1  0
  3  4  2  0
  4  5  1  0
  5  6  2  0
  6  7  1  0
  7  8  1  0
  8  9  2  0
  9 10  1  0
 10 11  2  0
 11 12  1  0
 12 13  2  0
 13 14  1  0
 14 15  2  0
 15 16  1  0
 16 17  2  0
 17 18  1  0
 14 19  1  0
 19 20  1  0
 20 21  1  0
 21 22  1  0
 22 23  1  0
 23 24  1  0
 22 25  1  0
 25 26  1  0
 26 27  1  0
 27 28  1  0
 28 29  1  0
 29 30  1  0
  9 31  1  0
 31 32  2  0
  1 33  1  0
 33 34  2  0
 34 35  1  0
 35 36  2  0
 36 37  1  0
 37 38  2  0
 32  3  1  0
 31  6  1  0
 18 10  1  0
 17 12  1  0
 24 19  1  0
 30 25  1  0
 38 33  1  0
M  END
>  <pIC50>  (109) 
7.22

>  <ChEMBL_ID>  (109) 
CHEMBL377346

>  <document_journal>  (109) 
Bioorg. Med. Chem. Lett.

>  <bao_endpoint>  (109) 
BAO_0000190

>  <potential_duplicate>  (109) 
False

>  <uo_units>  (109) 
UO_0000065

>  <canonical_smiles>  (109) 
C(Oc1ccc2[nH]nc(c3nc4cc(ccc4[nH]3)N5CCC(CC5)N6CCCCC6)c2c1)c7ccccc7

>  <parent_molecule_chembl_id>  (109) 
CHEMBL377346

>  <assay_type>  (109) 
B

>  <src_id>  (109) 
1

>  <ligand_efficiency>  (109) 
{u'le': u'0.26', u'bei': u'14.25', u'sei': u'9.88', u'lle': u'1.12'}

>  <standard_flag>  (109) 
True

>  <molecule_chembl_id>  (109) 
CHEMBL377346

>  <target_organism>  (109) 
Homo sapiens

>  <standard_units>  (109) 
nM

>  <record_id>  (109) 
498321

>  <document_chembl_id>  (109) 
CHEMBL1137421

>  <bao_format>  (109) 
BAO_0000357

>  <data_validity_description>  (109) 
None

>  <activity_id>  (109) 
1735308

>  <standard_type>  (109) 
IC50

>  <target_chembl_id>  (109) 
CHEMBL1862

>  <data_validity_comment>  (109) 
None

>  <published_value>  (109) 
0.06

>  <document_year>  (109) 
2006

>  <target_pref_name>  (109) 
Tyrosine-protein kinase ABL

>  <assay_chembl_id>  (109) 
CHEMBL871418

>  <standard_relation>  (109) 
=

>  <assay_description>  (109) 
Inhibition of c-ABL

>  <published_relation>  (109) 
=

>  <standard_value>  (109) 
60

>  <qudt_units>  (109) 
http://www.openphacts.org/units/Nanomolar

>  <target_tax_id>  (109) 
9606

>  <bao_label>  (109) 
single protein format

>  <published_units>  (109) 
uM

>  <pchembl_value>  (109) 
7.22

>  <published_type>  (109) 
IC50

>  <activity_comment>  (109) 
None

$$$$

     RDKit          

 37 43  0  0  0  0  0  0  0  0999 V2000
    0.0000    0.0000    0.0000 C   0  0  0  0  0  0  0  0  0  0  0  0
    0.0000    0.0000    0.0000 C   0  0  0  0  0  0  0  0  0  0  0  0
    0.0000    0.0000    0.0000 C   0  0  0  0  0  0  0  0  0  0  0  0
    0.0000    0.0000    0.0000 N   0  0  0  0  0  0  0  0  0  0  0  0
    0.0000    0.0000    0.0000 C   0  0  0  0  0  0  0  0  0  0  0  0
    0.0000    0.0000    0.0000 C   0  0  0  0  0  0  0  0  0  0  0  0
    0.0000    0.0000    0.0000 C   0  0  0  0  0  0  0  0  0  0  0  0
    0.0000    0.0000    0.0000 C   0  0  0  0  0  0  0  0  0  0  0  0
    0.0000    0.0000    0.0000 C   0  0  0  0  0  0  0  0  0  0  0  0
    0.0000    0.0000    0.0000 N   0  0  0  0  0  0  0  0  0  0  0  0
    0.0000    0.0000    0.0000 C   0  0  0  0  0  0  0  0  0  0  0  0
    0.0000    0.0000    0.0000 C   0  0  0  0  0  0  0  0  0  0  0  0
    0.0000    0.0000    0.0000 C   0  0  0  0  0  0  0  0  0  0  0  0
    0.0000    0.0000    0.0000 C   0  0  0  0  0  0  0  0  0  0  0  0
    0.0000    0.0000    0.0000 C   0  0  0  0  0  0  0  0  0  0  0  0
    0.0000    0.0000    0.0000 C   0  0  0  0  0  0  0  0  0  0  0  0
    0.0000    0.0000    0.0000 N   0  0  0  0  0  0  0  0  0  0  0  0
    0.0000    0.0000    0.0000 C   0  0  0  0  0  0  0  0  0  0  0  0
    0.0000    0.0000    0.0000 N   0  0  0  0  0  0  0  0  0  0  0  0
    0.0000    0.0000    0.0000 C   0  0  0  0  0  0  0  0  0  0  0  0
    0.0000    0.0000    0.0000 C   0  0  0  0  0  0  0  0  0  0  0  0
    0.0000    0.0000    0.0000 C   0  0  0  0  0  0  0  0  0  0  0  0
    0.0000    0.0000    0.0000 N   0  0  0  0  0  0  0  0  0  0  0  0
    0.0000    0.0000    0.0000 N   0  0  0  0  0  0  0  0  0  0  0  0
    0.0000    0.0000    0.0000 C   0  0  0  0  0  0  0  0  0  0  0  0
    0.0000    0.0000    0.0000 C   0  0  0  0  0  0  0  0  0  0  0  0
    0.0000    0.0000    0.0000 C   0  0  0  0  0  0  0  0  0  0  0  0
    0.0000    0.0000    0.0000 C   0  0  0  0  0  0  0  0  0  0  0  0
    0.0000    0.0000    0.0000 O   0  0  0  0  0  0  0  0  0  0  0  0
    0.0000    0.0000    0.0000 C   0  0  0  0  0  0  0  0  0  0  0  0
    0.0000    0.0000    0.0000 C   0  0  0  0  0  0  0  0  0  0  0  0
    0.0000    0.0000    0.0000 C   0  0  0  0  0  0  0  0  0  0  0  0
    0.0000    0.0000    0.0000 C   0  0  0  0  0  0  0  0  0  0  0  0
    0.0000    0.0000    0.0000 C   0  0  0  0  0  0  0  0  0  0  0  0
    0.0000    0.0000    0.0000 C   0  0  0  0  0  0  0  0  0  0  0  0
    0.0000    0.0000    0.0000 C   0  0  0  0  0  0  0  0  0  0  0  0
    0.0000    0.0000    0.0000 C   0  0  0  0  0  0  0  0  0  0  0  0
  1  2  1  0
  2  3  1  0
  3  4  1  0
  4  5  1  0
  5  6  1  0
  4  7  1  0
  7  8  1  0
  8  9  1  0
  9 10  1  0
 10 11  1  0
 11 12  1  0
 10 13  1  0
 13 14  2  0
 14 15  1  0
 15 16  2  0
 16 17  1  0
 17 18  1  0
 18 19  2  0
 19 20  1  0
 20 21  2  0
 18 22  1  0
 22 23  1  0
 23 24  1  0
 24 25  2  0
 25 26  1  0
 26 27  2  0
 27 28  1  0
 28 29  1  0
 29 30  1  0
 30 31  2  0
 31 32  1  0
 32 33  2  0
 33 34  1  0
 34 35  2  0
 28 36  2  0
 36 37  1  0
  6  1  1  0
 12  7  1  0
 21 13  1  0
 20 16  1  0
 37 22  2  0
 37 25  1  0
 35 30  1  0
M  END
>  <pIC50>  (110) 
7.52

>  <ChEMBL_ID>  (110) 
CHEMBL211662

>  <document_journal>  (110) 
Bioorg. Med. Chem. Lett.

>  <bao_endpoint>  (110) 
BAO_0000190

>  <potential_duplicate>  (110) 
False

>  <uo_units>  (110) 
UO_0000065

>  <canonical_smiles>  (110) 
C1CCN(CC1)C2CCN(CC2)c3ccc4[nH]c(nc4c3)c5[nH]nc6ccc(Oc7ccccc7)cc56

>  <parent_molecule_chembl_id>  (110) 
CHEMBL211662

>  <assay_type>  (110) 
B

>  <src_id>  (110) 
1

>  <ligand_efficiency>  (110) 
{u'le': u'0.28', u'bei': u'15.27', u'sei': u'10.3', u'lle': u'1.43'}

>  <standard_flag>  (110) 
True

>  <molecule_chembl_id>  (110) 
CHEMBL211662

>  <target_organism>  (110) 
Homo sapiens

>  <standard_units>  (110) 
nM

>  <record_id>  (110) 
498320

>  <document_chembl_id>  (110) 
CHEMBL1137421

>  <bao_format>  (110) 
BAO_0000357

>  <data_validity_description>  (110) 
None

>  <activity_id>  (110) 
1735309

>  <standard_type>  (110) 
IC50

>  <target_chembl_id>  (110) 
CHEMBL1862

>  <data_validity_comment>  (110) 
None

>  <published_value>  (110) 
0.03

>  <document_year>  (110) 
2006

>  <target_pref_name>  (110) 
Tyrosine-protein kinase ABL

>  <assay_chembl_id>  (110) 
CHEMBL871418

>  <standard_relation>  (110) 
=

>  <assay_description>  (110) 
Inhibition of c-ABL

>  <published_relation>  (110) 
=

>  <standard_value>  (110) 
30

>  <qudt_units>  (110) 
http://www.openphacts.org/units/Nanomolar

>  <target_tax_id>  (110) 
9606

>  <bao_label>  (110) 
single protein format

>  <published_units>  (110) 
uM

>  <pchembl_value>  (110) 
7.52

>  <published_type>  (110) 
IC50

>  <activity_comment>  (110) 
None

$$$$

     RDKit          

 32 37  0  0  0  0  0  0  0  0999 V2000
    0.0000    0.0000    0.0000 C   0  0  0  0  0  0  0  0  0  0  0  0
    0.0000    0.0000    0.0000 O   0  0  0  0  0  0  0  0  0  0  0  0
    0.0000    0.0000    0.0000 C   0  0  0  0  0  0  0  0  0  0  0  0
    0.0000    0.0000    0.0000 C   0  0  0  0  0  0  0  0  0  0  0  0
    0.0000    0.0000    0.0000 C   0  0  0  0  0  0  0  0  0  0  0  0
    0.0000    0.0000    0.0000 C   0  0  0  0  0  0  0  0  0  0  0  0
    0.0000    0.0000    0.0000 N   0  0  0  0  0  0  0  0  0  0  0  0
    0.0000    0.0000    0.0000 N   0  0  0  0  0  0  0  0  0  0  0  0
    0.0000    0.0000    0.0000 C   0  0  0  0  0  0  0  0  0  0  0  0
    0.0000    0.0000    0.0000 C   0  0  0  0  0  0  0  0  0  0  0  0
    0.0000    0.0000    0.0000 N   0  0  0  0  0  0  0  0  0  0  0  0
    0.0000    0.0000    0.0000 C   0  0  0  0  0  0  0  0  0  0  0  0
    0.0000    0.0000    0.0000 C   0  0  0  0  0  0  0  0  0  0  0  0
    0.0000    0.0000    0.0000 C   0  0  0  0  0  0  0  0  0  0  0  0
    0.0000    0.0000    0.0000 C   0  0  0  0  0  0  0  0  0  0  0  0
    0.0000    0.0000    0.0000 C   0  0  0  0  0  0  0  0  0  0  0  0
    0.0000    0.0000    0.0000 C   0  0  0  0  0  0  0  0  0  0  0  0
    0.0000    0.0000    0.0000 N   0  0  0  0  0  0  0  0  0  0  0  0
    0.0000    0.0000    0.0000 N   0  0  0  0  0  0  0  0  0  0  0  0
    0.0000    0.0000    0.0000 C   0  0  0  0  0  0  0  0  0  0  0  0
    0.0000    0.0000    0.0000 C   0  0  0  0  0  0  0  0  0  0  0  0
    0.0000    0.0000    0.0000 C   0  0  0  0  0  0  0  0  0  0  0  0
    0.0000    0.0000    0.0000 C   0  0  0  0  0  0  0  0  0  0  0  0
    0.0000    0.0000    0.0000 C   0  0  0  0  0  0  0  0  0  0  0  0
    0.0000    0.0000    0.0000 N   0  0  0  0  0  0  0  0  0  0  0  0
    0.0000    0.0000    0.0000 C   0  0  0  0  0  0  0  0  0  0  0  0
    0.0000    0.0000    0.0000 C   0  0  0  0  0  0  0  0  0  0  0  0
    0.0000    0.0000    0.0000 C   0  0  0  0  0  0  0  0  0  0  0  0
    0.0000    0.0000    0.0000 C   0  0  0  0  0  0  0  0  0  0  0  0
    0.0000    0.0000    0.0000 C   0  0  0  0  0  0  0  0  0  0  0  0
    0.0000    0.0000    0.0000 C   0  0  0  0  0  0  0  0  0  0  0  0
    0.0000    0.0000    0.0000 C   0  0  0  0  0  0  0  0  0  0  0  0
  1  2  1  0
  2  3  1  0
  3  4  2  0
  4  5  1  0
  5  6  2  0
  6  7  1  0
  7  8  1  0
  8  9  2  0
  9 10  1  0
 10 11  2  0
 11 12  1  0
 12 13  2  0
 13 14  1  0
 14 15  2  0
 15 16  1  0
 16 17  2  0
 17 18  1  0
 14 19  1  0
 19 20  1  0
 20 21  1  0
 21 22  1  0
 22 23  1  0
 23 24  1  0
 22 25  1  0
 25 26  1  0
 26 27  1  0
 27 28  1  0
 28 29  1  0
 29 30  1  0
  9 31  1  0
 31 32  2  0
 32  3  1  0
 31  6  1  0
 18 10  1  0
 17 12  1  0
 24 19  1  0
 30 25  1  0
M  END
>  <pIC50>  (111) 
6.64

>  <ChEMBL_ID>  (111) 
CHEMBL209305

>  <document_journal>  (111) 
Bioorg. Med. Chem. Lett.

>  <bao_endpoint>  (111) 
BAO_0000190

>  <potential_duplicate>  (111) 
False

>  <uo_units>  (111) 
UO_0000065

>  <canonical_smiles>  (111) 
COc1ccc2[nH]nc(c3nc4cc(ccc4[nH]3)N5CCC(CC5)N6CCCCC6)c2c1

>  <parent_molecule_chembl_id>  (111) 
CHEMBL209305

>  <assay_type>  (111) 
B

>  <src_id>  (111) 
1

>  <ligand_efficiency>  (111) 
{u'le': u'0.28', u'bei': u'15.42', u'sei': u'9.08', u'lle': u'2.12'}

>  <standard_flag>  (111) 
True

>  <molecule_chembl_id>  (111) 
CHEMBL209305

>  <target_organism>  (111) 
Homo sapiens

>  <standard_units>  (111) 
nM

>  <record_id>  (111) 
498319

>  <document_chembl_id>  (111) 
CHEMBL1137421

>  <bao_format>  (111) 
BAO_0000357

>  <data_validity_description>  (111) 
None

>  <activity_id>  (111) 
1735310

>  <standard_type>  (111) 
IC50

>  <target_chembl_id>  (111) 
CHEMBL1862

>  <data_validity_comment>  (111) 
None

>  <published_value>  (111) 
0.23

>  <document_year>  (111) 
2006

>  <target_pref_name>  (111) 
Tyrosine-protein kinase ABL

>  <assay_chembl_id>  (111) 
CHEMBL871418

>  <standard_relation>  (111) 
=

>  <assay_description>  (111) 
Inhibition of c-ABL

>  <published_relation>  (111) 
=

>  <standard_value>  (111) 
230

>  <qudt_units>  (111) 
http://www.openphacts.org/units/Nanomolar

>  <target_tax_id>  (111) 
9606

>  <bao_label>  (111) 
single protein format

>  <published_units>  (111) 
uM

>  <pchembl_value>  (111) 
6.64

>  <published_type>  (111) 
IC50

>  <activity_comment>  (111) 
None

$$$$

     RDKit          

 30 35  0  0  0  0  0  0  0  0999 V2000
    0.0000    0.0000    0.0000 C   0  0  0  0  0  0  0  0  0  0  0  0
    0.0000    0.0000    0.0000 C   0  0  0  0  0  0  0  0  0  0  0  0
    0.0000    0.0000    0.0000 C   0  0  0  0  0  0  0  0  0  0  0  0
    0.0000    0.0000    0.0000 N   0  0  0  0  0  0  0  0  0  0  0  0
    0.0000    0.0000    0.0000 C   0  0  0  0  0  0  0  0  0  0  0  0
    0.0000    0.0000    0.0000 C   0  0  0  0  0  0  0  0  0  0  0  0
    0.0000    0.0000    0.0000 C   0  0  0  0  0  0  0  0  0  0  0  0
    0.0000    0.0000    0.0000 C   0  0  0  0  0  0  0  0  0  0  0  0
    0.0000    0.0000    0.0000 C   0  0  0  0  0  0  0  0  0  0  0  0
    0.0000    0.0000    0.0000 N   0  0  0  0  0  0  0  0  0  0  0  0
    0.0000    0.0000    0.0000 C   0  0  0  0  0  0  0  0  0  0  0  0
    0.0000    0.0000    0.0000 C   0  0  0  0  0  0  0  0  0  0  0  0
    0.0000    0.0000    0.0000 C   0  0  0  0  0  0  0  0  0  0  0  0
    0.0000    0.0000    0.0000 C   0  0  0  0  0  0  0  0  0  0  0  0
    0.0000    0.0000    0.0000 C   0  0  0  0  0  0  0  0  0  0  0  0
    0.0000    0.0000    0.0000 C   0  0  0  0  0  0  0  0  0  0  0  0
    0.0000    0.0000    0.0000 N   0  0  0  0  0  0  0  0  0  0  0  0
    0.0000    0.0000    0.0000 C   0  0  0  0  0  0  0  0  0  0  0  0
    0.0000    0.0000    0.0000 N   0  0  0  0  0  0  0  0  0  0  0  0
    0.0000    0.0000    0.0000 C   0  0  0  0  0  0  0  0  0  0  0  0
    0.0000    0.0000    0.0000 C   0  0  0  0  0  0  0  0  0  0  0  0
    0.0000    0.0000    0.0000 C   0  0  0  0  0  0  0  0  0  0  0  0
    0.0000    0.0000    0.0000 N   0  0  0  0  0  0  0  0  0  0  0  0
    0.0000    0.0000    0.0000 N   0  0  0  0  0  0  0  0  0  0  0  0
    0.0000    0.0000    0.0000 C   0  0  0  0  0  0  0  0  0  0  0  0
    0.0000    0.0000    0.0000 C   0  0  0  0  0  0  0  0  0  0  0  0
    0.0000    0.0000    0.0000 C   0  0  0  0  0  0  0  0  0  0  0  0
    0.0000    0.0000    0.0000 C   0  0  0  0  0  0  0  0  0  0  0  0
    0.0000    0.0000    0.0000 C   0  0  0  0  0  0  0  0  0  0  0  0
    0.0000    0.0000    0.0000 C   0  0  0  0  0  0  0  0  0  0  0  0
  1  2  1  0
  2  3  1  0
  3  4  1  0
  4  5  1  0
  5  6  1  0
  4  7  1  0
  7  8  1  0
  8  9  1  0
  9 10  1  0
 10 11  1  0
 11 12  1  0
 10 13  1  0
 13 14  2  0
 14 15  1  0
 15 16  2  0
 16 17  1  0
 17 18  1  0
 18 19  2  0
 19 20  1  0
 20 21  2  0
 18 22  1  0
 22 23  1  0
 23 24  1  0
 24 25  2  0
 25 26  1  0
 26 27  2  0
 27 28  1  0
 28 29  2  0
 29 30  1  0
  6  1  1  0
 12  7  1  0
 21 13  1  0
 20 16  1  0
 30 22  2  0
 30 25  1  0
M  END
>  <pIC50>  (112) 
6.22

>  <ChEMBL_ID>  (112) 
CHEMBL378299

>  <document_journal>  (112) 
Bioorg. Med. Chem. Lett.

>  <bao_endpoint>  (112) 
BAO_0000190

>  <potential_duplicate>  (112) 
False

>  <uo_units>  (112) 
UO_0000065

>  <canonical_smiles>  (112) 
C1CCN(CC1)C2CCN(CC2)c3ccc4[nH]c(nc4c3)c5[nH]nc6ccccc56

>  <parent_molecule_chembl_id>  (112) 
CHEMBL378299

>  <assay_type>  (112) 
B

>  <src_id>  (112) 
1

>  <ligand_efficiency>  (112) 
{u'le': u'0.28', u'bei': u'15.53', u'sei': u'9.75', u'lle': u'1.69'}

>  <standard_flag>  (112) 
True

>  <molecule_chembl_id>  (112) 
CHEMBL378299

>  <target_organism>  (112) 
Homo sapiens

>  <standard_units>  (112) 
nM

>  <record_id>  (112) 
498318

>  <document_chembl_id>  (112) 
CHEMBL1137421

>  <bao_format>  (112) 
BAO_0000357

>  <data_validity_description>  (112) 
None

>  <activity_id>  (112) 
1735311

>  <standard_type>  (112) 
IC50

>  <target_chembl_id>  (112) 
CHEMBL1862

>  <data_validity_comment>  (112) 
None

>  <published_value>  (112) 
0.6

>  <document_year>  (112) 
2006

>  <target_pref_name>  (112) 
Tyrosine-protein kinase ABL

>  <assay_chembl_id>  (112) 
CHEMBL871418

>  <standard_relation>  (112) 
=

>  <assay_description>  (112) 
Inhibition of c-ABL

>  <published_relation>  (112) 
=

>  <standard_value>  (112) 
600

>  <qudt_units>  (112) 
http://www.openphacts.org/units/Nanomolar

>  <target_tax_id>  (112) 
9606

>  <bao_label>  (112) 
single protein format

>  <published_units>  (112) 
uM

>  <pchembl_value>  (112) 
6.22

>  <published_type>  (112) 
IC50

>  <activity_comment>  (112) 
None

$$$$

     RDKit          

 37 41  0  0  0  0  0  0  0  0999 V2000
    0.0000    0.0000    0.0000 C   0  0  0  0  0  0  0  0  0  0  0  0
    0.0000    0.0000    0.0000 N   0  0  0  0  0  0  0  0  0  0  0  0
    0.0000    0.0000    0.0000 C   0  0  0  0  0  0  0  0  0  0  0  0
    0.0000    0.0000    0.0000 C   0  0  0  0  0  0  0  0  0  0  0  0
    0.0000    0.0000    0.0000 N   0  0  0  0  0  0  0  0  0  0  0  0
    0.0000    0.0000    0.0000 C   0  0  0  0  0  0  0  0  0  0  0  0
    0.0000    0.0000    0.0000 C   0  0  0  0  0  0  0  0  0  0  0  0
    0.0000    0.0000    0.0000 C   0  0  0  0  0  0  0  0  0  0  0  0
    0.0000    0.0000    0.0000 C   0  0  0  0  0  0  0  0  0  0  0  0
    0.0000    0.0000    0.0000 C   0  0  0  0  0  0  0  0  0  0  0  0
    0.0000    0.0000    0.0000 C   0  0  0  0  0  0  0  0  0  0  0  0
    0.0000    0.0000    0.0000 C   0  0  0  0  0  0  0  0  0  0  0  0
    0.0000    0.0000    0.0000 C   0  0  0  0  0  0  0  0  0  0  0  0
    0.0000    0.0000    0.0000 O   0  0  0  0  0  0  0  0  0  0  0  0
    0.0000    0.0000    0.0000 N   0  0  0  0  0  0  0  0  0  0  0  0
    0.0000    0.0000    0.0000 C   0  0  0  0  0  0  0  0  0  0  0  0
    0.0000    0.0000    0.0000 C   0  0  0  0  0  0  0  0  0  0  0  0
    0.0000    0.0000    0.0000 C   0  0  0  0  0  0  0  0  0  0  0  0
    0.0000    0.0000    0.0000 C   0  0  0  0  0  0  0  0  0  0  0  0
    0.0000    0.0000    0.0000 C   0  0  0  0  0  0  0  0  0  0  0  0
    0.0000    0.0000    0.0000 C   0  0  0  0  0  0  0  0  0  0  0  0
    0.0000    0.0000    0.0000 N   0  0  0  0  0  0  0  0  0  0  0  0
    0.0000    0.0000    0.0000 C   0  0  0  0  0  0  0  0  0  0  0  0
    0.0000    0.0000    0.0000 N   0  0  0  0  0  0  0  0  0  0  0  0
    0.0000    0.0000    0.0000 C   0  0  0  0  0  0  0  0  0  0  0  0
    0.0000    0.0000    0.0000 C   0  0  0  0  0  0  0  0  0  0  0  0
    0.0000    0.0000    0.0000 C   0  0  0  0  0  0  0  0  0  0  0  0
    0.0000    0.0000    0.0000 N   0  0  0  0  0  0  0  0  0  0  0  0
    0.0000    0.0000    0.0000 C   0  0  0  0  0  0  0  0  0  0  0  0
    0.0000    0.0000    0.0000 C   0  0  0  0  0  0  0  0  0  0  0  0
    0.0000    0.0000    0.0000 C   0  0  0  0  0  0  0  0  0  0  0  0
    0.0000    0.0000    0.0000 C   0  0  0  0  0  0  0  0  0  0  0  0
    0.0000    0.0000    0.0000 N   0  0  0  0  0  0  0  0  0  0  0  0
    0.0000    0.0000    0.0000 C   0  0  0  0  0  0  0  0  0  0  0  0
    0.0000    0.0000    0.0000 C   0  0  0  0  0  0  0  0  0  0  0  0
    0.0000    0.0000    0.0000 C   0  0  0  0  0  0  0  0  0  0  0  0
    0.0000    0.0000    0.0000 C   0  0  0  0  0  0  0  0  0  0  0  0
  1  2  1  0
  2  3  1  0
  3  4  1  0
  4  5  1  0
  5  6  1  0
  6  7  1  0
  7  8  2  0
  8  9  1  0
  9 10  2  0
 10 11  1  0
 11 12  2  0
 10 13  1  0
 13 14  2  0
 13 15  1  0
 15 16  1  0
 16 17  2  0
 17 18  1  0
 18 19  2  0
 19 20  1  0
 19 21  1  0
 21 22  1  0
 22 23  1  0
 23 24  2  0
 24 25  1  0
 25 26  2  0
 26 27  1  0
 27 28  2  0
 27 29  1  0
 29 30  2  0
 30 31  1  0
 31 32  2  0
 32 33  1  0
 33 34  2  0
 21 35  2  0
  5 36  1  0
 36 37  1  0
 37  2  1  0
 12  7  1  0
 35 16  1  0
 28 23  1  0
 34 29  1  0
M  END
>  <pIC50>  (113) 
6.37

>  <ChEMBL_ID>  (113) 
CHEMBL1642

>  <document_journal>  (113) 
Bioorg. Med. Chem. Lett.

>  <bao_endpoint>  (113) 
BAO_0000190

>  <potential_duplicate>  (113) 
False

>  <uo_units>  (113) 
UO_0000065

>  <canonical_smiles>  (113) 
CN1CCN(Cc2ccc(cc2)C(=O)Nc3ccc(C)c(Nc4nccc(n4)c5cccnc5)c3)CC1.CS(=O)(=O)O

>  <parent_molecule_chembl_id>  (113) 
CHEMBL941

>  <assay_type>  (113) 
B

>  <src_id>  (113) 
1

>  <ligand_efficiency>  (113) 
{u'le': u'0.23', u'bei': u'12.9', u'sei': u'7.38', u'lle': u'2.15'}

>  <standard_flag>  (113) 
True

>  <molecule_chembl_id>  (113) 
CHEMBL1642

>  <target_organism>  (113) 
Homo sapiens

>  <standard_units>  (113) 
nM

>  <record_id>  (113) 
498317

>  <document_chembl_id>  (113) 
CHEMBL1137421

>  <bao_format>  (113) 
BAO_0000357

>  <data_validity_description>  (113) 
None

>  <activity_id>  (113) 
1735313

>  <standard_type>  (113) 
IC50

>  <target_chembl_id>  (113) 
CHEMBL1862

>  <data_validity_comment>  (113) 
None

>  <published_value>  (113) 
0.43

>  <document_year>  (113) 
2006

>  <target_pref_name>  (113) 
Tyrosine-protein kinase ABL

>  <assay_chembl_id>  (113) 
CHEMBL871418

>  <standard_relation>  (113) 
=

>  <assay_description>  (113) 
Inhibition of c-ABL

>  <published_relation>  (113) 
=

>  <standard_value>  (113) 
430

>  <qudt_units>  (113) 
http://www.openphacts.org/units/Nanomolar

>  <target_tax_id>  (113) 
9606

>  <bao_label>  (113) 
single protein format

>  <published_units>  (113) 
uM

>  <pchembl_value>  (113) 
6.37

>  <published_type>  (113) 
IC50

>  <activity_comment>  (113) 
None

$$$$

     RDKit          

 38 43  0  0  0  0  0  0  0  0999 V2000
    0.0000    0.0000    0.0000 C   0  0  0  0  0  0  0  0  0  0  0  0
    0.0000    0.0000    0.0000 N   0  0  0  0  0  0  0  0  0  0  0  0
    0.0000    0.0000    0.0000 C   0  0  0  0  0  0  0  0  0  0  0  0
    0.0000    0.0000    0.0000 C   0  0  0  0  0  0  0  0  0  0  0  0
    0.0000    0.0000    0.0000 N   0  0  0  0  0  0  0  0  0  0  0  0
    0.0000    0.0000    0.0000 C   0  0  0  0  0  0  0  0  0  0  0  0
    0.0000    0.0000    0.0000 C   0  0  0  0  0  0  0  0  0  0  0  0
    0.0000    0.0000    0.0000 O   0  0  0  0  0  0  0  0  0  0  0  0
    0.0000    0.0000    0.0000 C   0  0  0  0  0  0  0  0  0  0  0  0
    0.0000    0.0000    0.0000 C   0  0  0  0  0  0  0  0  0  0  0  0
    0.0000    0.0000    0.0000 C   0  0  0  0  0  0  0  0  0  0  0  0
    0.0000    0.0000    0.0000 O   0  0  0  0  0  0  0  0  0  0  0  0
    0.0000    0.0000    0.0000 C   0  0  0  0  0  0  0  0  0  0  0  0
    0.0000    0.0000    0.0000 C   0  0  0  0  0  0  0  0  0  0  0  0
    0.0000    0.0000    0.0000 C   0  0  0  0  0  0  0  0  0  0  0  0
    0.0000    0.0000    0.0000 O   0  0  0  0  0  0  0  0  0  0  0  0
    0.0000    0.0000    0.0000 C   0  0  0  0  0  0  0  0  0  0  0  0
    0.0000    0.0000    0.0000 C   0  0  0  0  0  0  0  0  0  0  0  0
    0.0000    0.0000    0.0000 C   0  0  0  0  0  0  0  0  0  0  0  0
    0.0000    0.0000    0.0000 C   0  0  0  0  0  0  0  0  0  0  0  0
    0.0000    0.0000    0.0000 N   0  0  0  0  0  0  0  0  0  0  0  0
    0.0000    0.0000    0.0000 C   0  0  0  0  0  0  0  0  0  0  0  0
    0.0000    0.0000    0.0000 C   0  0  0  0  0  0  0  0  0  0  0  0
    0.0000    0.0000    0.0000 Cl  0  0  0  0  0  0  0  0  0  0  0  0
    0.0000    0.0000    0.0000 C   0  0  0  0  0  0  0  0  0  0  0  0
    0.0000    0.0000    0.0000 C   0  0  0  0  0  0  0  0  0  0  0  0
    0.0000    0.0000    0.0000 C   0  0  0  0  0  0  0  0  0  0  0  0
    0.0000    0.0000    0.0000 O   0  0  0  0  0  0  0  0  0  0  0  0
    0.0000    0.0000    0.0000 C   0  0  0  0  0  0  0  0  0  0  0  0
    0.0000    0.0000    0.0000 O   0  0  0  0  0  0  0  0  0  0  0  0
    0.0000    0.0000    0.0000 C   0  0  0  0  0  0  0  0  0  0  0  0
    0.0000    0.0000    0.0000 N   0  0  0  0  0  0  0  0  0  0  0  0
    0.0000    0.0000    0.0000 C   0  0  0  0  0  0  0  0  0  0  0  0
    0.0000    0.0000    0.0000 N   0  0  0  0  0  0  0  0  0  0  0  0
    0.0000    0.0000    0.0000 C   0  0  0  0  0  0  0  0  0  0  0  0
    0.0000    0.0000    0.0000 C   0  0  0  0  0  0  0  0  0  0  0  0
    0.0000    0.0000    0.0000 C   0  0  0  0  0  0  0  0  0  0  0  0
    0.0000    0.0000    0.0000 C   0  0  0  0  0  0  0  0  0  0  0  0
  1  2  1  0
  2  3  1  0
  3  4  1  0
  4  5  1  0
  5  6  1  0
  6  7  1  0
  7  8  1  0
  8  9  1  0
  9 10  2  0
 10 11  1  0
 11 12  1  0
 12 13  1  0
 13 14  1  0
 14 15  1  0
 15 16  1  0
 16 17  1  0
 17 18  1  0
 11 19  2  0
 19 20  1  0
 20 21  1  0
 21 22  1  0
 22 23  2  0
 23 24  1  0
 23 25  1  0
 25 26  2  0
 26 27  1  0
 27 28  1  0
 28 29  1  0
 29 30  1  0
 30 31  1  0
 20 32  2  0
 32 33  1  0
 33 34  2  0
 34 35  1  0
 35 36  2  0
  5 37  1  0
 37 38  1  0
 38  2  1  0
 36  9  1  0
 18 13  1  0
 35 19  1  0
 31 22  1  0
 31 27  2  0
M  END
>  <pIC50>  (114) 
7.52

>  <ChEMBL_ID>  (114) 
CHEMBL217092

>  <document_journal>  (114) 
J. Med. Chem.

>  <bao_endpoint>  (114) 
BAO_0000190

>  <potential_duplicate>  (114) 
False

>  <uo_units>  (114) 
UO_0000065

>  <canonical_smiles>  (114) 
CN1CCN(CCOc2cc(OC3CCOCC3)c4c(Nc5c(Cl)ccc6OCOc56)ncnc4c2)CC1

>  <parent_molecule_chembl_id>  (114) 
CHEMBL217092

>  <assay_type>  (114) 
B

>  <src_id>  (114) 
1

>  <ligand_efficiency>  (114) 
{u'le': u'0.27', u'bei': u'13.88', u'sei': u'8.32', u'lle': u'3.71'}

>  <standard_flag>  (114) 
True

>  <molecule_chembl_id>  (114) 
CHEMBL217092

>  <target_organism>  (114) 
Homo sapiens

>  <standard_units>  (114) 
nM

>  <record_id>  (114) 
592914

>  <document_chembl_id>  (114) 
CHEMBL1137334

>  <bao_format>  (114) 
BAO_0000357

>  <data_validity_description>  (114) 
None

>  <activity_id>  (114) 
1779385

>  <standard_type>  (114) 
IC50

>  <target_chembl_id>  (114) 
CHEMBL1862

>  <data_validity_comment>  (114) 
None

>  <published_value>  (114) 
0.03

>  <document_year>  (114) 
2006

>  <target_pref_name>  (114) 
Tyrosine-protein kinase ABL

>  <assay_chembl_id>  (114) 
CHEMBL854973

>  <standard_relation>  (114) 
=

>  <assay_description>  (114) 
Inhibition of recombinant v-Abl by ELISA

>  <published_relation>  (114) 
=

>  <standard_value>  (114) 
30

>  <qudt_units>  (114) 
http://www.openphacts.org/units/Nanomolar

>  <target_tax_id>  (114) 
9606

>  <bao_label>  (114) 
single protein format

>  <published_units>  (114) 
uM

>  <pchembl_value>  (114) 
7.52

>  <published_type>  (114) 
IC50

>  <activity_comment>  (114) 
None

$$$$

     RDKit          

 35 39  0  0  0  0  0  0  0  0999 V2000
    0.0000    0.0000    0.0000 C   0  0  0  0  0  0  0  0  0  0  0  0
    0.0000    0.0000    0.0000 O   0  0  0  0  0  0  0  0  0  0  0  0
    0.0000    0.0000    0.0000 C   0  0  0  0  0  0  0  0  0  0  0  0
    0.0000    0.0000    0.0000 C   0  0  0  0  0  0  0  0  0  0  0  0
    0.0000    0.0000    0.0000 O   0  0  0  0  0  0  0  0  0  0  0  0
    0.0000    0.0000    0.0000 N   0  0  0  0  0  0  0  0  0  0  0  0
    0.0000    0.0000    0.0000 C   0  0  0  0  0  0  0  0  0  0  0  0
    0.0000    0.0000    0.0000 C   0  0  0  0  0  0  0  0  0  0  0  0
    0.0000    0.0000    0.0000 N   0  0  0  0  0  0  0  0  0  0  0  0
    0.0000    0.0000    0.0000 N   0  0  0  0  0  0  0  0  0  0  0  0
    0.0000    0.0000    0.0000 C   0  0  0  0  0  0  0  0  0  0  0  0
    0.0000    0.0000    0.0000 N   0  0  0  0  0  0  0  0  0  0  0  0
    0.0000    0.0000    0.0000 C   0  0  0  0  0  0  0  0  0  0  0  0
    0.0000    0.0000    0.0000 O   0  0  0  0  0  0  0  0  0  0  0  0
    0.0000    0.0000    0.0000 C   0  0  0  0  0  0  0  0  0  0  0  0
    0.0000    0.0000    0.0000 C   0  0  0  0  0  0  0  0  0  0  0  0
    0.0000    0.0000    0.0000 C   0  0  0  0  0  0  0  0  0  0  0  0
    0.0000    0.0000    0.0000 C   0  0  0  0  0  0  0  0  0  0  0  0
    0.0000    0.0000    0.0000 C   0  0  0  0  0  0  0  0  0  0  0  0
    0.0000    0.0000    0.0000 C   0  0  0  0  0  0  0  0  0  0  0  0
    0.0000    0.0000    0.0000 N   0  0  0  0  0  0  0  0  0  0  0  0
    0.0000    0.0000    0.0000 C   0  0  0  0  0  0  0  0  0  0  0  0
    0.0000    0.0000    0.0000 C   0  0  0  0  0  0  0  0  0  0  0  0
    0.0000    0.0000    0.0000 N   0  0  0  0  0  0  0  0  0  0  0  0
    0.0000    0.0000    0.0000 C   0  0  0  0  0  0  0  0  0  0  0  0
    0.0000    0.0000    0.0000 C   0  0  0  0  0  0  0  0  0  0  0  0
    0.0000    0.0000    0.0000 C   0  0  0  0  0  0  0  0  0  0  0  0
    0.0000    0.0000    0.0000 C   0  0  0  0  0  0  0  0  0  0  0  0
    0.0000    0.0000    0.0000 C   0  0  0  0  0  0  0  0  0  0  0  0
    0.0000    0.0000    0.0000 C   0  0  0  0  0  0  0  0  0  0  0  0
    0.0000    0.0000    0.0000 C   0  0  0  0  0  0  0  0  0  0  0  0
    0.0000    0.0000    0.0000 C   0  0  0  0  0  0  0  0  0  0  0  0
    0.0000    0.0000    0.0000 C   0  0  0  0  0  0  0  0  0  0  0  0
    0.0000    0.0000    0.0000 C   0  0  0  0  0  0  0  0  0  0  0  0
    0.0000    0.0000    0.0000 C   0  0  0  0  0  0  0  0  0  0  0  0
  1  2  1  0
  2  3  1  0
  3  4  1  0
  4  5  2  0
  4  6  1  0
  6  7  1  0
  7  8  1  0
  8  9  2  0
  9 10  1  0
 10 11  1  0
 11 12  1  0
 12 13  1  0
 13 14  2  0
 13 15  1  0
 15 16  2  0
 16 17  1  0
 17 18  2  0
 18 19  1  0
 19 20  2  0
 18 21  1  0
 21 22  1  0
 22 23  1  0
 23 24  1  0
 24 25  1  0
 24 26  1  0
 26 27  1  0
 11 28  2  0
 28 29  1  0
  3 30  1  0
 30 31  2  0
 31 32  1  0
 32 33  2  0
 33 34  1  0
 34 35  2  0
 29  6  1  0
 28  8  1  0
 20 15  1  0
 27 21  1  0
 35 30  1  0
M  END
>  <pIC50>  (115) 
7.85

>  <ChEMBL_ID>  (115) 
CHEMBL402548

>  <document_journal>  (115) 
J. Med. Chem.

>  <bao_endpoint>  (115) 
BAO_0000190

>  <potential_duplicate>  (115) 
False

>  <uo_units>  (115) 
UO_0000065

>  <canonical_smiles>  (115) 
CO[C@@H](C(=O)N1Cc2n[nH]c(NC(=O)c3ccc(cc3)N4CCN(C)CC4)c2C1)c5ccccc5

>  <parent_molecule_chembl_id>  (115) 
CHEMBL402548

>  <assay_type>  (115) 
B

>  <src_id>  (115) 
1

>  <ligand_efficiency>  (115) 
{u'le': u'0.3', u'bei': u'16.02', u'sei': u'8.1', u'lle': u'5.54'}

>  <standard_flag>  (115) 
True

>  <molecule_chembl_id>  (115) 
CHEMBL402548

>  <target_organism>  (115) 
Homo sapiens

>  <standard_units>  (115) 
nM

>  <record_id>  (115) 
600232

>  <document_chembl_id>  (115) 
CHEMBL1137365

>  <bao_format>  (115) 
BAO_0000357

>  <data_validity_description>  (115) 
None

>  <activity_id>  (115) 
1781986

>  <standard_type>  (115) 
IC50

>  <target_chembl_id>  (115) 
CHEMBL1862

>  <data_validity_comment>  (115) 
None

>  <published_value>  (115) 
0.025

>  <document_year>  (115) 
2006

>  <target_pref_name>  (115) 
Tyrosine-protein kinase ABL

>  <assay_chembl_id>  (115) 
CHEMBL911836

>  <standard_relation>  (115) 
=

>  <assay_description>  (115) 
Inhibition of ABL kinase

>  <published_relation>  (115) 
=

>  <standard_value>  (115) 
25

>  <qudt_units>  (115) 
http://www.openphacts.org/units/Nanomolar

>  <target_tax_id>  (115) 
9606

>  <bao_label>  (115) 
single protein format

>  <published_units>  (115) 
uM

>  <pchembl_value>  (115) 
7.6

>  <published_type>  (115) 
IC50

>  <activity_comment>  (115) 
None

$$$$

     RDKit          

 28 31  0  0  0  0  0  0  0  0999 V2000
    0.0000    0.0000    0.0000 C   0  0  0  0  0  0  0  0  0  0  0  0
    0.0000    0.0000    0.0000 O   0  0  0  0  0  0  0  0  0  0  0  0
    0.0000    0.0000    0.0000 C   0  0  0  0  0  0  0  0  0  0  0  0
    0.0000    0.0000    0.0000 C   0  0  0  0  0  0  0  0  0  0  0  0
    0.0000    0.0000    0.0000 C   0  0  0  0  0  0  0  0  0  0  0  0
    0.0000    0.0000    0.0000 C   0  0  0  0  0  0  0  0  0  0  0  0
    0.0000    0.0000    0.0000 C   0  0  0  0  0  0  0  0  0  0  0  0
    0.0000    0.0000    0.0000 O   0  0  0  0  0  0  0  0  0  0  0  0
    0.0000    0.0000    0.0000 C   0  0  0  0  0  0  0  0  0  0  0  0
    0.0000    0.0000    0.0000 C   0  0  0  0  0  0  0  0  0  0  0  0
    0.0000    0.0000    0.0000 O   0  0  0  0  0  0  0  0  0  0  0  0
    0.0000    0.0000    0.0000 C   0  0  0  0  0  0  0  0  0  0  0  0
    0.0000    0.0000    0.0000 C   0  0  0  0  0  0  0  0  0  0  0  0
    0.0000    0.0000    0.0000 C   0  0  0  0  0  0  0  0  0  0  0  0
    0.0000    0.0000    0.0000 C   0  0  0  0  0  0  0  0  0  0  0  0
    0.0000    0.0000    0.0000 O   0  0  0  0  0  0  0  0  0  0  0  0
    0.0000    0.0000    0.0000 N   0  0  0  0  0  0  0  0  0  0  0  0
    0.0000    0.0000    0.0000 C   0  0  0  0  0  0  0  0  0  0  0  0
    0.0000    0.0000    0.0000 O   0  0  0  0  0  0  0  0  0  0  0  0
    0.0000    0.0000    0.0000 C   0  0  0  0  0  0  0  0  0  0  0  0
    0.0000    0.0000    0.0000 C   0  0  0  0  0  0  0  0  0  0  0  0
    0.0000    0.0000    0.0000 N   0  0  0  0  0  0  0  0  0  0  0  0
    0.0000    0.0000    0.0000 C   0  0  0  0  0  0  0  0  0  0  0  0
    0.0000    0.0000    0.0000 C   0  0  0  0  0  0  0  0  0  0  0  0
    0.0000    0.0000    0.0000 C   0  0  0  0  0  0  0  0  0  0  0  0
    0.0000    0.0000    0.0000 C   0  0  0  0  0  0  0  0  0  0  0  0
    0.0000    0.0000    0.0000 C   0  0  0  0  0  0  0  0  0  0  0  0
    0.0000    0.0000    0.0000 C   0  0  0  0  0  0  0  0  0  0  0  0
  1  2  1  0
  2  3  1  0
  3  4  2  0
  4  5  1  0
  5  6  2  0
  6  7  1  0
  7  8  1  0
  8  9  1  0
  7 10  2  0
 10 11  1  0
 11 12  1  0
  5 13  1  0
 13 14  2  0
 14 15  1  0
 15 16  2  0
 15 17  1  0
 17 18  1  0
 18 19  2  0
 14 20  1  0
 20 21  2  0
 21 22  1  0
 22 23  1  0
 23 24  2  0
 24 25  1  0
 25 26  2  0
 26 27  1  0
 27 28  2  0
 10  3  1  0
 18 13  1  0
 28 20  1  0
 28 23  1  0
M  END
>  <pIC50>  (116) 
4.03

>  <ChEMBL_ID>  (116) 
CHEMBL201511

>  <document_journal>  (116) 
J. Med. Chem.

>  <bao_endpoint>  (116) 
BAO_0000190

>  <potential_duplicate>  (116) 
False

>  <uo_units>  (116) 
UO_0000065

>  <canonical_smiles>  (116) 
COc1cc(cc(OC)c1OC)C2=C(C(=O)NC2=O)c3c[nH]c4ccccc34

>  <parent_molecule_chembl_id>  (116) 
CHEMBL201511

>  <assay_type>  (116) 
B

>  <src_id>  (116) 
1

>  <ligand_efficiency>  (116) 
{u'le': u'0.2', u'bei': u'10.65', u'sei': u'4.5', u'lle': u'1.22'}

>  <standard_flag>  (116) 
True

>  <molecule_chembl_id>  (116) 
CHEMBL201511

>  <target_organism>  (116) 
Homo sapiens

>  <standard_units>  (116) 
nM

>  <record_id>  (116) 
614588

>  <document_chembl_id>  (116) 
CHEMBL1137241

>  <bao_format>  (116) 
BAO_0000357

>  <data_validity_description>  (116) 
None

>  <activity_id>  (116) 
1790428

>  <standard_type>  (116) 
IC50

>  <target_chembl_id>  (116) 
CHEMBL1862

>  <data_validity_comment>  (116) 
None

>  <published_value>  (116) 
0.000093

>  <document_year>  (116) 
2006

>  <target_pref_name>  (116) 
Tyrosine-protein kinase ABL

>  <assay_chembl_id>  (116) 
CHEMBL912716

>  <standard_relation>  (116) 
=

>  <assay_description>  (116) 
Inhibition of human ABL1

>  <published_relation>  (116) 
=

>  <standard_value>  (116) 
93000

>  <qudt_units>  (116) 
http://www.openphacts.org/units/Nanomolar

>  <target_tax_id>  (116) 
9606

>  <bao_label>  (116) 
single protein format

>  <published_units>  (116) 
M

>  <pchembl_value>  (116) 
4.03

>  <published_type>  (116) 
IC50

>  <activity_comment>  (116) 
None

$$$$

     RDKit          

 38 42  0  0  0  0  0  0  0  0999 V2000
    0.0000    0.0000    0.0000 C   0  0  0  0  0  0  0  0  0  0  0  0
    0.0000    0.0000    0.0000 O   0  0  0  0  0  0  0  0  0  0  0  0
    0.0000    0.0000    0.0000 C   0  0  0  0  0  0  0  0  0  0  0  0
    0.0000    0.0000    0.0000 C   0  0  0  0  0  0  0  0  0  0  0  0
    0.0000    0.0000    0.0000 C   0  0  0  0  0  0  0  0  0  0  0  0
    0.0000    0.0000    0.0000 N   0  0  0  0  0  0  0  0  0  0  0  0
    0.0000    0.0000    0.0000 C   0  0  0  0  0  0  0  0  0  0  0  0
    0.0000    0.0000    0.0000 C   0  0  0  0  0  0  0  0  0  0  0  0
    0.0000    0.0000    0.0000 C   0  0  0  0  0  0  0  0  0  0  0  0
    0.0000    0.0000    0.0000 N   0  0  0  0  0  0  0  0  0  0  0  0
    0.0000    0.0000    0.0000 C   0  0  0  0  0  0  0  0  0  0  0  0
    0.0000    0.0000    0.0000 C   0  0  0  0  0  0  0  0  0  0  0  0
    0.0000    0.0000    0.0000 C   0  0  0  0  0  0  0  0  0  0  0  0
    0.0000    0.0000    0.0000 C   0  0  0  0  0  0  0  0  0  0  0  0
    0.0000    0.0000    0.0000 O   0  0  0  0  0  0  0  0  0  0  0  0
    0.0000    0.0000    0.0000 C   0  0  0  0  0  0  0  0  0  0  0  0
    0.0000    0.0000    0.0000 C   0  0  0  0  0  0  0  0  0  0  0  0
    0.0000    0.0000    0.0000 C   0  0  0  0  0  0  0  0  0  0  0  0
    0.0000    0.0000    0.0000 C   0  0  0  0  0  0  0  0  0  0  0  0
    0.0000    0.0000    0.0000 C   0  0  0  0  0  0  0  0  0  0  0  0
    0.0000    0.0000    0.0000 O   0  0  0  0  0  0  0  0  0  0  0  0
    0.0000    0.0000    0.0000 C   0  0  0  0  0  0  0  0  0  0  0  0
    0.0000    0.0000    0.0000 C   0  0  0  0  0  0  0  0  0  0  0  0
    0.0000    0.0000    0.0000 N   0  0  0  0  0  0  0  0  0  0  0  0
    0.0000    0.0000    0.0000 C   0  0  0  0  0  0  0  0  0  0  0  0
    0.0000    0.0000    0.0000 C   0  0  0  0  0  0  0  0  0  0  0  0
    0.0000    0.0000    0.0000 N   0  0  0  0  0  0  0  0  0  0  0  0
    0.0000    0.0000    0.0000 C   0  0  0  0  0  0  0  0  0  0  0  0
    0.0000    0.0000    0.0000 C   0  0  0  0  0  0  0  0  0  0  0  0
    0.0000    0.0000    0.0000 C   0  0  0  0  0  0  0  0  0  0  0  0
    0.0000    0.0000    0.0000 C   0  0  0  0  0  0  0  0  0  0  0  0
    0.0000    0.0000    0.0000 C   0  0  0  0  0  0  0  0  0  0  0  0
    0.0000    0.0000    0.0000 N   0  0  0  0  0  0  0  0  0  0  0  0
    0.0000    0.0000    0.0000 C   0  0  0  0  0  0  0  0  0  0  0  0
    0.0000    0.0000    0.0000 Cl  0  0  0  0  0  0  0  0  0  0  0  0
    0.0000    0.0000    0.0000 C   0  0  0  0  0  0  0  0  0  0  0  0
    0.0000    0.0000    0.0000 C   0  0  0  0  0  0  0  0  0  0  0  0
    0.0000    0.0000    0.0000 Cl  0  0  0  0  0  0  0  0  0  0  0  0
  1  2  1  0
  2  3  1  0
  3  4  2  0
  4  5  1  0
  5  6  1  0
  6  7  1  0
  7  8  2  0
  8  9  1  0
  9 10  2  0
 10 11  1  0
 11 12  2  0
 12 13  1  0
 13 14  2  0
 14 15  1  0
 15 16  1  0
 14 17  1  0
 17 18  2  0
 13 19  1  0
 19 20  2  0
 20 21  1  0
 21 22  1  0
 22 23  1  0
 23 24  1  0
 24 25  1  0
 25 26  1  0
 26 27  1  0
 27 28  1  0
 27 29  1  0
 29 30  1  0
 22 31  2  0
  8 32  1  0
 32 33  3  0
  5 34  2  0
 34 35  1  0
 34 36  1  0
 36 37  2  0
 37 38  1  0
 37  3  1  0
 18  7  1  0
 18 11  1  0
 31 19  1  0
 30 24  1  0
M  END
>  <pIC50>  (117) 
9.4

>  <ChEMBL_ID>  (117) 
CHEMBL219557

>  <document_journal>  (117) 
J. Med. Chem.

>  <bao_endpoint>  (117) 
BAO_0000190

>  <potential_duplicate>  (117) 
False

>  <uo_units>  (117) 
UO_0000065

>  <canonical_smiles>  (117) 
COc1cc(Nc2c(cnc3cc(c(OC)cc23)c4coc(CN5CCN(C)CC5)c4)C#N)c(Cl)cc1Cl

>  <parent_molecule_chembl_id>  (117) 
CHEMBL219557

>  <assay_type>  (117) 
B

>  <src_id>  (117) 
1

>  <ligand_efficiency>  (117) 
{u'le': u'0.34', u'bei': u'17.01', u'sei': u'10.83', u'lle': u'3.93'}

>  <standard_flag>  (117) 
True

>  <molecule_chembl_id>  (117) 
CHEMBL219557

>  <target_organism>  (117) 
Homo sapiens

>  <standard_units>  (117) 
nM

>  <record_id>  (117) 
620683

>  <document_chembl_id>  (117) 
CHEMBL1138859

>  <bao_format>  (117) 
BAO_0000357

>  <data_validity_description>  (117) 
None

>  <activity_id>  (117) 
1800145

>  <standard_type>  (117) 
IC50

>  <target_chembl_id>  (117) 
CHEMBL1862

>  <data_validity_comment>  (117) 
None

>  <published_value>  (117) 
0.4

>  <document_year>  (117) 
2006

>  <target_pref_name>  (117) 
Tyrosine-protein kinase ABL

>  <assay_chembl_id>  (117) 
CHEMBL910454

>  <standard_relation>  (117) 
=

>  <assay_description>  (117) 
Inhibitory activity against Abl kinase

>  <published_relation>  (117) 
=

>  <standard_value>  (117) 
0.4

>  <qudt_units>  (117) 
http://www.openphacts.org/units/Nanomolar

>  <target_tax_id>  (117) 
9606

>  <bao_label>  (117) 
single protein format

>  <published_units>  (117) 
nM

>  <pchembl_value>  (117) 
9.4

>  <published_type>  (117) 
IC50

>  <activity_comment>  (117) 
None

$$$$

     RDKit          

 43 48  0  0  0  0  0  0  0  0999 V2000
    0.0000    0.0000    0.0000 C   0  0  0  0  0  0  0  0  0  0  0  0
    0.0000    0.0000    0.0000 O   0  0  0  0  0  0  0  0  0  0  0  0
    0.0000    0.0000    0.0000 C   0  0  0  0  0  0  0  0  0  0  0  0
    0.0000    0.0000    0.0000 C   0  0  0  0  0  0  0  0  0  0  0  0
    0.0000    0.0000    0.0000 C   0  0  0  0  0  0  0  0  0  0  0  0
    0.0000    0.0000    0.0000 N   0  0  0  0  0  0  0  0  0  0  0  0
    0.0000    0.0000    0.0000 C   0  0  0  0  0  0  0  0  0  0  0  0
    0.0000    0.0000    0.0000 C   0  0  0  0  0  0  0  0  0  0  0  0
    0.0000    0.0000    0.0000 C   0  0  0  0  0  0  0  0  0  0  0  0
    0.0000    0.0000    0.0000 N   0  0  0  0  0  0  0  0  0  0  0  0
    0.0000    0.0000    0.0000 C   0  0  0  0  0  0  0  0  0  0  0  0
    0.0000    0.0000    0.0000 C   0  0  0  0  0  0  0  0  0  0  0  0
    0.0000    0.0000    0.0000 C   0  0  0  0  0  0  0  0  0  0  0  0
    0.0000    0.0000    0.0000 C   0  0  0  0  0  0  0  0  0  0  0  0
    0.0000    0.0000    0.0000 O   0  0  0  0  0  0  0  0  0  0  0  0
    0.0000    0.0000    0.0000 C   0  0  0  0  0  0  0  0  0  0  0  0
    0.0000    0.0000    0.0000 C   0  0  0  0  0  0  0  0  0  0  0  0
    0.0000    0.0000    0.0000 C   0  0  0  0  0  0  0  0  0  0  0  0
    0.0000    0.0000    0.0000 C   0  0  0  0  0  0  0  0  0  0  0  0
    0.0000    0.0000    0.0000 C   0  0  0  0  0  0  0  0  0  0  0  0
    0.0000    0.0000    0.0000 O   0  0  0  0  0  0  0  0  0  0  0  0
    0.0000    0.0000    0.0000 C   0  0  0  0  0  0  0  0  0  0  0  0
    0.0000    0.0000    0.0000 C   0  0  0  0  0  0  0  0  0  0  0  0
    0.0000    0.0000    0.0000 N   0  0  0  0  0  0  0  0  0  0  0  0
    0.0000    0.0000    0.0000 C   0  0  0  0  0  0  0  0  0  0  0  0
    0.0000    0.0000    0.0000 C   0  0  0  0  0  0  0  0  0  0  0  0
    0.0000    0.0000    0.0000 N   0  0  0  0  0  0  0  0  0  0  0  0
    0.0000    0.0000    0.0000 C   0  0  0  0  0  0  0  0  0  0  0  0
    0.0000    0.0000    0.0000 C   0  0  0  0  0  0  0  0  0  0  0  0
    0.0000    0.0000    0.0000 C   0  0  0  0  0  0  0  0  0  0  0  0
    0.0000    0.0000    0.0000 C   0  0  0  0  0  0  0  0  0  0  0  0
    0.0000    0.0000    0.0000 C   0  0  0  0  0  0  0  0  0  0  0  0
    0.0000    0.0000    0.0000 C   0  0  0  0  0  0  0  0  0  0  0  0
    0.0000    0.0000    0.0000 C   0  0  0  0  0  0  0  0  0  0  0  0
    0.0000    0.0000    0.0000 C   0  0  0  0  0  0  0  0  0  0  0  0
    0.0000    0.0000    0.0000 C   0  0  0  0  0  0  0  0  0  0  0  0
    0.0000    0.0000    0.0000 C   0  0  0  0  0  0  0  0  0  0  0  0
    0.0000    0.0000    0.0000 N   0  0  0  0  0  0  0  0  0  0  0  0
    0.0000    0.0000    0.0000 C   0  0  0  0  0  0  0  0  0  0  0  0
    0.0000    0.0000    0.0000 Cl  0  0  0  0  0  0  0  0  0  0  0  0
    0.0000    0.0000    0.0000 C   0  0  0  0  0  0  0  0  0  0  0  0
    0.0000    0.0000    0.0000 C   0  0  0  0  0  0  0  0  0  0  0  0
    0.0000    0.0000    0.0000 Cl  0  0  0  0  0  0  0  0  0  0  0  0
  1  2  1  0
  2  3  1  0
  3  4  2  0
  4  5  1  0
  5  6  1  0
  6  7  1  0
  7  8  2  0
  8  9  1  0
  9 10  2  0
 10 11  1  0
 11 12  2  0
 12 13  1  0
 13 14  2  0
 14 15  1  0
 15 16  1  0
 14 17  1  0
 17 18  2  0
 13 19  1  0
 19 20  2  0
 20 21  1  0
 21 22  1  0
 22 23  1  0
 23 24  1  0
 24 25  1  0
 25 26  1  0
 26 27  1  0
 27 28  1  0
 28 29  1  0
 27 30  1  0
 30 31  2  0
 31 32  1  0
 32 33  2  0
 33 34  1  0
 34 35  2  0
 22 36  2  0
  8 37  1  0
 37 38  3  0
  5 39  2  0
 39 40  1  0
 39 41  1  0
 41 42  2  0
 42 43  1  0
 42  3  1  0
 18  7  1  0
 18 11  1  0
 36 19  1  0
 29 24  1  0
 35 30  1  0
M  END
>  <pIC50>  (118) 
9.37

>  <ChEMBL_ID>  (118) 
CHEMBL278495

>  <document_journal>  (118) 
J. Med. Chem.

>  <bao_endpoint>  (118) 
BAO_0000190

>  <potential_duplicate>  (118) 
False

>  <uo_units>  (118) 
UO_0000065

>  <canonical_smiles>  (118) 
COc1cc(Nc2c(cnc3cc(c(OC)cc23)c4coc(CN5CCN(CC5)c6ccccc6)c4)C#N)c(Cl)cc1Cl

>  <parent_molecule_chembl_id>  (118) 
CHEMBL278495

>  <assay_type>  (118) 
B

>  <src_id>  (118) 
1

>  <ligand_efficiency>  (118) 
{u'le': u'0.3', u'bei': u'15.24', u'sei': u'10.79', u'lle': u'2.23'}

>  <standard_flag>  (118) 
True

>  <molecule_chembl_id>  (118) 
CHEMBL278495

>  <target_organism>  (118) 
Homo sapiens

>  <standard_units>  (118) 
nM

>  <record_id>  (118) 
620689

>  <document_chembl_id>  (118) 
CHEMBL1138859

>  <bao_format>  (118) 
BAO_0000357

>  <data_validity_description>  (118) 
None

>  <activity_id>  (118) 
1800147

>  <standard_type>  (118) 
IC50

>  <target_chembl_id>  (118) 
CHEMBL1862

>  <data_validity_comment>  (118) 
None

>  <published_value>  (118) 
0.43

>  <document_year>  (118) 
2006

>  <target_pref_name>  (118) 
Tyrosine-protein kinase ABL

>  <assay_chembl_id>  (118) 
CHEMBL910454

>  <standard_relation>  (118) 
=

>  <assay_description>  (118) 
Inhibitory activity against Abl kinase

>  <published_relation>  (118) 
=

>  <standard_value>  (118) 
0.43

>  <qudt_units>  (118) 
http://www.openphacts.org/units/Nanomolar

>  <target_tax_id>  (118) 
9606

>  <bao_label>  (118) 
single protein format

>  <published_units>  (118) 
nM

>  <pchembl_value>  (118) 
9.37

>  <published_type>  (118) 
IC50

>  <activity_comment>  (118) 
None

$$$$

     RDKit          

 34 37  0  0  0  0  0  0  0  0999 V2000
    0.0000    0.0000    0.0000 C   0  0  0  0  0  0  0  0  0  0  0  0
    0.0000    0.0000    0.0000 O   0  0  0  0  0  0  0  0  0  0  0  0
    0.0000    0.0000    0.0000 C   0  0  0  0  0  0  0  0  0  0  0  0
    0.0000    0.0000    0.0000 C   0  0  0  0  0  0  0  0  0  0  0  0
    0.0000    0.0000    0.0000 C   0  0  0  0  0  0  0  0  0  0  0  0
    0.0000    0.0000    0.0000 N   0  0  0  0  0  0  0  0  0  0  0  0
    0.0000    0.0000    0.0000 C   0  0  0  0  0  0  0  0  0  0  0  0
    0.0000    0.0000    0.0000 C   0  0  0  0  0  0  0  0  0  0  0  0
    0.0000    0.0000    0.0000 C   0  0  0  0  0  0  0  0  0  0  0  0
    0.0000    0.0000    0.0000 N   0  0  0  0  0  0  0  0  0  0  0  0
    0.0000    0.0000    0.0000 C   0  0  0  0  0  0  0  0  0  0  0  0
    0.0000    0.0000    0.0000 C   0  0  0  0  0  0  0  0  0  0  0  0
    0.0000    0.0000    0.0000 C   0  0  0  0  0  0  0  0  0  0  0  0
    0.0000    0.0000    0.0000 C   0  0  0  0  0  0  0  0  0  0  0  0
    0.0000    0.0000    0.0000 O   0  0  0  0  0  0  0  0  0  0  0  0
    0.0000    0.0000    0.0000 C   0  0  0  0  0  0  0  0  0  0  0  0
    0.0000    0.0000    0.0000 C   0  0  0  0  0  0  0  0  0  0  0  0
    0.0000    0.0000    0.0000 C   0  0  0  0  0  0  0  0  0  0  0  0
    0.0000    0.0000    0.0000 C   0  0  0  0  0  0  0  0  0  0  0  0
    0.0000    0.0000    0.0000 C   0  0  0  0  0  0  0  0  0  0  0  0
    0.0000    0.0000    0.0000 O   0  0  0  0  0  0  0  0  0  0  0  0
    0.0000    0.0000    0.0000 C   0  0  0  0  0  0  0  0  0  0  0  0
    0.0000    0.0000    0.0000 C   0  0  0  0  0  0  0  0  0  0  0  0
    0.0000    0.0000    0.0000 N   0  0  0  0  0  0  0  0  0  0  0  0
    0.0000    0.0000    0.0000 C   0  0  0  0  0  0  0  0  0  0  0  0
    0.0000    0.0000    0.0000 C   0  0  0  0  0  0  0  0  0  0  0  0
    0.0000    0.0000    0.0000 C   0  0  0  0  0  0  0  0  0  0  0  0
    0.0000    0.0000    0.0000 C   0  0  0  0  0  0  0  0  0  0  0  0
    0.0000    0.0000    0.0000 N   0  0  0  0  0  0  0  0  0  0  0  0
    0.0000    0.0000    0.0000 C   0  0  0  0  0  0  0  0  0  0  0  0
    0.0000    0.0000    0.0000 Cl  0  0  0  0  0  0  0  0  0  0  0  0
    0.0000    0.0000    0.0000 C   0  0  0  0  0  0  0  0  0  0  0  0
    0.0000    0.0000    0.0000 C   0  0  0  0  0  0  0  0  0  0  0  0
    0.0000    0.0000    0.0000 Cl  0  0  0  0  0  0  0  0  0  0  0  0
  1  2  1  0
  2  3  1  0
  3  4  2  0
  4  5  1  0
  5  6  1  0
  6  7  1  0
  7  8  2  0
  8  9  1  0
  9 10  2  0
 10 11  1  0
 11 12  2  0
 12 13  1  0
 13 14  2  0
 14 15  1  0
 15 16  1  0
 14 17  1  0
 17 18  2  0
 13 19  1  0
 19 20  2  0
 20 21  1  0
 21 22  1  0
 22 23  1  0
 23 24  1  0
 24 25  1  0
 24 26  1  0
 22 27  2  0
  8 28  1  0
 28 29  3  0
  5 30  2  0
 30 31  1  0
 30 32  1  0
 32 33  2  0
 33 34  1  0
 33  3  1  0
 18  7  1  0
 18 11  1  0
 27 19  1  0
M  END
>  <pIC50>  (119) 
9.37

>  <ChEMBL_ID>  (119) 
CHEMBL219964

>  <document_journal>  (119) 
J. Med. Chem.

>  <bao_endpoint>  (119) 
BAO_0000190

>  <potential_duplicate>  (119) 
False

>  <uo_units>  (119) 
UO_0000065

>  <canonical_smiles>  (119) 
COc1cc(Nc2c(cnc3cc(c(OC)cc23)c4coc(CN(C)C)c4)C#N)c(Cl)cc1Cl

>  <parent_molecule_chembl_id>  (119) 
CHEMBL219964

>  <assay_type>  (119) 
B

>  <src_id>  (119) 
1

>  <ligand_efficiency>  (119) 
{u'le': u'0.38', u'bei': u'18.83', u'sei': u'11.21', u'lle': u'3.85'}

>  <standard_flag>  (119) 
True

>  <molecule_chembl_id>  (119) 
CHEMBL219964

>  <target_organism>  (119) 
Homo sapiens

>  <standard_units>  (119) 
nM

>  <record_id>  (119) 
620688

>  <document_chembl_id>  (119) 
CHEMBL1138859

>  <bao_format>  (119) 
BAO_0000357

>  <data_validity_description>  (119) 
None

>  <activity_id>  (119) 
1800148

>  <standard_type>  (119) 
IC50

>  <target_chembl_id>  (119) 
CHEMBL1862

>  <data_validity_comment>  (119) 
None

>  <published_value>  (119) 
0.43

>  <document_year>  (119) 
2006

>  <target_pref_name>  (119) 
Tyrosine-protein kinase ABL

>  <assay_chembl_id>  (119) 
CHEMBL910454

>  <standard_relation>  (119) 
=

>  <assay_description>  (119) 
Inhibitory activity against Abl kinase

>  <published_relation>  (119) 
=

>  <standard_value>  (119) 
0.43

>  <qudt_units>  (119) 
http://www.openphacts.org/units/Nanomolar

>  <target_tax_id>  (119) 
9606

>  <bao_label>  (119) 
single protein format

>  <published_units>  (119) 
nM

>  <pchembl_value>  (119) 
9.37

>  <published_type>  (119) 
IC50

>  <activity_comment>  (119) 
None

$$$$

     RDKit          

 36 40  0  0  0  0  0  0  0  0999 V2000
    0.0000    0.0000    0.0000 C   0  0  0  0  0  0  0  0  0  0  0  0
    0.0000    0.0000    0.0000 O   0  0  0  0  0  0  0  0  0  0  0  0
    0.0000    0.0000    0.0000 C   0  0  0  0  0  0  0  0  0  0  0  0
    0.0000    0.0000    0.0000 C   0  0  0  0  0  0  0  0  0  0  0  0
    0.0000    0.0000    0.0000 C   0  0  0  0  0  0  0  0  0  0  0  0
    0.0000    0.0000    0.0000 N   0  0  0  0  0  0  0  0  0  0  0  0
    0.0000    0.0000    0.0000 C   0  0  0  0  0  0  0  0  0  0  0  0
    0.0000    0.0000    0.0000 C   0  0  0  0  0  0  0  0  0  0  0  0
    0.0000    0.0000    0.0000 C   0  0  0  0  0  0  0  0  0  0  0  0
    0.0000    0.0000    0.0000 N   0  0  0  0  0  0  0  0  0  0  0  0
    0.0000    0.0000    0.0000 C   0  0  0  0  0  0  0  0  0  0  0  0
    0.0000    0.0000    0.0000 C   0  0  0  0  0  0  0  0  0  0  0  0
    0.0000    0.0000    0.0000 C   0  0  0  0  0  0  0  0  0  0  0  0
    0.0000    0.0000    0.0000 C   0  0  0  0  0  0  0  0  0  0  0  0
    0.0000    0.0000    0.0000 C   0  0  0  0  0  0  0  0  0  0  0  0
    0.0000    0.0000    0.0000 C   0  0  0  0  0  0  0  0  0  0  0  0
    0.0000    0.0000    0.0000 C   0  0  0  0  0  0  0  0  0  0  0  0
    0.0000    0.0000    0.0000 C   0  0  0  0  0  0  0  0  0  0  0  0
    0.0000    0.0000    0.0000 O   0  0  0  0  0  0  0  0  0  0  0  0
    0.0000    0.0000    0.0000 C   0  0  0  0  0  0  0  0  0  0  0  0
    0.0000    0.0000    0.0000 C   0  0  0  0  0  0  0  0  0  0  0  0
    0.0000    0.0000    0.0000 N   0  0  0  0  0  0  0  0  0  0  0  0
    0.0000    0.0000    0.0000 C   0  0  0  0  0  0  0  0  0  0  0  0
    0.0000    0.0000    0.0000 C   0  0  0  0  0  0  0  0  0  0  0  0
    0.0000    0.0000    0.0000 N   0  0  0  0  0  0  0  0  0  0  0  0
    0.0000    0.0000    0.0000 C   0  0  0  0  0  0  0  0  0  0  0  0
    0.0000    0.0000    0.0000 C   0  0  0  0  0  0  0  0  0  0  0  0
    0.0000    0.0000    0.0000 C   0  0  0  0  0  0  0  0  0  0  0  0
    0.0000    0.0000    0.0000 C   0  0  0  0  0  0  0  0  0  0  0  0
    0.0000    0.0000    0.0000 C   0  0  0  0  0  0  0  0  0  0  0  0
    0.0000    0.0000    0.0000 N   0  0  0  0  0  0  0  0  0  0  0  0
    0.0000    0.0000    0.0000 C   0  0  0  0  0  0  0  0  0  0  0  0
    0.0000    0.0000    0.0000 Cl  0  0  0  0  0  0  0  0  0  0  0  0
    0.0000    0.0000    0.0000 C   0  0  0  0  0  0  0  0  0  0  0  0
    0.0000    0.0000    0.0000 C   0  0  0  0  0  0  0  0  0  0  0  0
    0.0000    0.0000    0.0000 Cl  0  0  0  0  0  0  0  0  0  0  0  0
  1  2  1  0
  2  3  1  0
  3  4  2  0
  4  5  1  0
  5  6  1  0
  6  7  1  0
  7  8  2  0
  8  9  1  0
  9 10  2  0
 10 11  1  0
 11 12  2  0
 12 13  1  0
 13 14  2  0
 14 15  1  0
 15 16  2  0
 13 17  1  0
 17 18  2  0
 18 19  1  0
 19 20  1  0
 20 21  1  0
 21 22  1  0
 22 23  1  0
 23 24  1  0
 24 25  1  0
 25 26  1  0
 25 27  1  0
 27 28  1  0
 20 29  2  0
  8 30  1  0
 30 31  3  0
  5 32  2  0
 32 33  1  0
 32 34  1  0
 34 35  2  0
 35 36  1  0
 35  3  1  0
 16  7  1  0
 16 11  1  0
 29 17  1  0
 28 22  1  0
M  END
>  <pIC50>  (120) 
9.37

>  <ChEMBL_ID>  (120) 
CHEMBL219260

>  <document_journal>  (120) 
J. Med. Chem.

>  <bao_endpoint>  (120) 
BAO_0000190

>  <potential_duplicate>  (120) 
False

>  <uo_units>  (120) 
UO_0000065

>  <canonical_smiles>  (120) 
COc1cc(Nc2c(cnc3cc(ccc23)c4coc(CN5CCN(C)CC5)c4)C#N)c(Cl)cc1Cl

>  <parent_molecule_chembl_id>  (120) 
CHEMBL219260

>  <assay_type>  (120) 
B

>  <src_id>  (120) 
1

>  <ligand_efficiency>  (120) 
{u'le': u'0.36', u'bei': u'17.93', u'sei': u'12.08', u'lle': u'3.88'}

>  <standard_flag>  (120) 
True

>  <molecule_chembl_id>  (120) 
CHEMBL219260

>  <target_organism>  (120) 
Homo sapiens

>  <standard_units>  (120) 
nM

>  <record_id>  (120) 
620681

>  <document_chembl_id>  (120) 
CHEMBL1138859

>  <bao_format>  (120) 
BAO_0000357

>  <data_validity_description>  (120) 
None

>  <activity_id>  (120) 
1800149

>  <standard_type>  (120) 
IC50

>  <target_chembl_id>  (120) 
CHEMBL1862

>  <data_validity_comment>  (120) 
None

>  <published_value>  (120) 
0.43

>  <document_year>  (120) 
2006

>  <target_pref_name>  (120) 
Tyrosine-protein kinase ABL

>  <assay_chembl_id>  (120) 
CHEMBL910454

>  <standard_relation>  (120) 
=

>  <assay_description>  (120) 
Inhibitory activity against Abl kinase

>  <published_relation>  (120) 
=

>  <standard_value>  (120) 
0.43

>  <qudt_units>  (120) 
http://www.openphacts.org/units/Nanomolar

>  <target_tax_id>  (120) 
9606

>  <bao_label>  (120) 
single protein format

>  <published_units>  (120) 
nM

>  <pchembl_value>  (120) 
9.37

>  <published_type>  (120) 
IC50

>  <activity_comment>  (120) 
None

$$$$

     RDKit          

 34 38  0  0  0  0  0  0  0  0999 V2000
    0.0000    0.0000    0.0000 C   0  0  0  0  0  0  0  0  0  0  0  0
    0.0000    0.0000    0.0000 C   0  0  0  0  0  0  0  0  0  0  0  0
    0.0000    0.0000    0.0000 C   0  0  0  0  0  0  0  0  0  0  0  0
    0.0000    0.0000    0.0000 C   0  0  0  0  0  0  0  0  0  0  0  0
    0.0000    0.0000    0.0000 C   0  0  0  0  0  0  0  0  0  0  0  0
    0.0000    0.0000    0.0000 C   0  0  0  0  0  0  0  0  0  0  0  0
    0.0000    0.0000    0.0000 C   0  0  0  0  0  0  0  0  0  0  0  0
    0.0000    0.0000    0.0000 C   0  0  0  0  0  0  0  0  0  0  0  0
    0.0000    0.0000    0.0000 C   0  0  0  0  0  0  0  0  0  0  0  0
    0.0000    0.0000    0.0000 C   0  0  0  0  0  0  0  0  0  0  0  0
    0.0000    0.0000    0.0000 C   0  0  0  0  0  0  0  0  0  0  0  0
    0.0000    0.0000    0.0000 C   0  0  0  0  0  0  0  0  0  0  0  0
    0.0000    0.0000    0.0000 C   0  0  0  0  0  0  0  0  0  0  0  0
    0.0000    0.0000    0.0000 N   0  0  0  0  0  0  0  0  0  0  0  0
    0.0000    0.0000    0.0000 C   0  0  0  0  0  0  0  0  0  0  0  0
    0.0000    0.0000    0.0000 N   0  0  0  0  0  0  0  0  0  0  0  0
    0.0000    0.0000    0.0000 C   0  0  0  0  0  0  0  0  0  0  0  0
    0.0000    0.0000    0.0000 C   0  0  0  0  0  0  0  0  0  0  0  0
    0.0000    0.0000    0.0000 C   0  0  0  0  0  0  0  0  0  0  0  0
    0.0000    0.0000    0.0000 C   0  0  0  0  0  0  0  0  0  0  0  0
    0.0000    0.0000    0.0000 O   0  0  0  0  0  0  0  0  0  0  0  0
    0.0000    0.0000    0.0000 C   0  0  0  0  0  0  0  0  0  0  0  0
    0.0000    0.0000    0.0000 C   0  0  0  0  0  0  0  0  0  0  0  0
    0.0000    0.0000    0.0000 N   0  0  0  0  0  0  0  0  0  0  0  0
    0.0000    0.0000    0.0000 C   0  0  0  0  0  0  0  0  0  0  0  0
    0.0000    0.0000    0.0000 C   0  0  0  0  0  0  0  0  0  0  0  0
    0.0000    0.0000    0.0000 C   0  0  0  0  0  0  0  0  0  0  0  0
    0.0000    0.0000    0.0000 C   0  0  0  0  0  0  0  0  0  0  0  0
    0.0000    0.0000    0.0000 C   0  0  0  0  0  0  0  0  0  0  0  0
    0.0000    0.0000    0.0000 C   0  0  0  0  0  0  0  0  0  0  0  0
    0.0000    0.0000    0.0000 N   0  0  0  0  0  0  0  0  0  0  0  0
    0.0000    0.0000    0.0000 N   0  0  0  0  0  0  0  0  0  0  0  0
    0.0000    0.0000    0.0000 C   0  0  0  0  0  0  0  0  0  0  0  0
    0.0000    0.0000    0.0000 C   0  0  0  0  0  0  0  0  0  0  0  0
  1  2  1  0
  2  3  2  0
  3  4  1  0
  4  5  2  0
  5  6  1  0
  6  7  1  0
  6  8  2  0
  8  9  1  0
  9 10  2  0
 10 11  1  0
 11 12  1  0
 11 13  2  0
 13 14  1  0
 14 15  2  0
 15 16  1  0
 16 17  1  0
 17 18  2  0
 18 19  1  0
 19 20  2  0
 20 21  1  0
 21 22  1  0
 22 23  1  0
 23 24  1  0
 24 25  1  0
 25 26  1  0
 26 27  1  0
 27 28  1  0
 20 29  1  0
 29 30  2  0
 15 31  1  0
 31 32  2  0
 32 33  1  0
 33 34  2  0
  8  2  1  0
 34  9  1  0
 33 13  1  0
 30 17  1  0
 28 24  1  0
M  END
>  <pIC50>  (121) 
6.46

>  <ChEMBL_ID>  (121) 
CHEMBL436137

>  <document_journal>  (121) 
Bioorg. Med. Chem. Lett.

>  <bao_endpoint>  (121) 
BAO_0000190

>  <potential_duplicate>  (121) 
False

>  <uo_units>  (121) 
UO_0000065

>  <canonical_smiles>  (121) 
Cc1cccc(C)c1c2cc(C)c3nc(Nc4ccc(OCCN5CCCC5)cc4)nnc3c2

>  <parent_molecule_chembl_id>  (121) 
CHEMBL436137

>  <assay_type>  (121) 
B

>  <src_id>  (121) 
1

>  <ligand_efficiency>  (121) 
{u'le': u'0.31', u'bei': u'16.97', u'sei': u'12.19', u'lle': u'0.72'}

>  <standard_flag>  (121) 
True

>  <molecule_chembl_id>  (121) 
CHEMBL436137

>  <target_organism>  (121) 
Homo sapiens

>  <standard_units>  (121) 
nM

>  <record_id>  (121) 
622408

>  <document_chembl_id>  (121) 
CHEMBL1139689

>  <bao_format>  (121) 
BAO_0000357

>  <data_validity_description>  (121) 
None

>  <activity_id>  (121) 
1807176

>  <standard_type>  (121) 
IC50

>  <target_chembl_id>  (121) 
CHEMBL1862

>  <data_validity_comment>  (121) 
None

>  <published_value>  (121) 
0.02

>  <document_year>  (121) 
2006

>  <target_pref_name>  (121) 
Tyrosine-protein kinase ABL

>  <assay_chembl_id>  (121) 
CHEMBL908993

>  <standard_relation>  (121) 
=

>  <assay_description>  (121) 
Inhibition of Abl

>  <published_relation>  (121) 
=

>  <standard_value>  (121) 
20

>  <qudt_units>  (121) 
http://www.openphacts.org/units/Nanomolar

>  <target_tax_id>  (121) 
9606

>  <bao_label>  (121) 
single protein format

>  <published_units>  (121) 
uM

>  <pchembl_value>  (121) 
7.7

>  <published_type>  (121) 
IC50

>  <activity_comment>  (121) 
None

$$$$

     RDKit          

 43 46  0  0  0  0  0  0  0  0999 V2000
    0.0000    0.0000    0.0000 C   0  0  0  0  0  0  0  0  0  0  0  0
    0.0000    0.0000    0.0000 N   0  0  0  0  0  0  0  0  0  0  0  0
    0.0000    0.0000    0.0000 C   0  0  0  0  0  0  0  0  0  0  0  0
    0.0000    0.0000    0.0000 N   0  0  0  0  0  0  0  0  0  0  0  0
    0.0000    0.0000    0.0000 C   0  0  0  0  0  0  0  0  0  0  0  0
    0.0000    0.0000    0.0000 N   0  0  0  0  0  0  0  0  0  0  0  0
    0.0000    0.0000    0.0000 C   0  0  0  0  0  0  0  0  0  0  0  0
    0.0000    0.0000    0.0000 N   0  0  0  0  0  0  0  0  0  0  0  0
    0.0000    0.0000    0.0000 C   0  0  0  0  0  0  0  0  0  0  0  0
    0.0000    0.0000    0.0000 C   0  0  0  0  0  0  0  0  0  0  0  0
    0.0000    0.0000    0.0000 C   0  0  0  0  0  0  0  0  0  0  0  0
    0.0000    0.0000    0.0000 C   0  0  0  0  0  0  0  0  0  0  0  0
    0.0000    0.0000    0.0000 N   0  0  0  0  0  0  0  0  0  0  0  0
    0.0000    0.0000    0.0000 C   0  0  0  0  0  0  0  0  0  0  0  0
    0.0000    0.0000    0.0000 O   0  0  0  0  0  0  0  0  0  0  0  0
    0.0000    0.0000    0.0000 C   0  0  0  0  0  0  0  0  0  0  0  0
    0.0000    0.0000    0.0000 C   0  0  0  0  0  0  0  0  0  0  0  0
    0.0000    0.0000    0.0000 C   0  0  0  0  0  0  0  0  0  0  0  0
    0.0000    0.0000    0.0000 C   0  0  0  0  0  0  0  0  0  0  0  0
    0.0000    0.0000    0.0000 F   0  0  0  0  0  0  0  0  0  0  0  0
    0.0000    0.0000    0.0000 C   0  0  0  0  0  0  0  0  0  0  0  0
    0.0000    0.0000    0.0000 C   0  0  0  0  0  0  0  0  0  0  0  0
    0.0000    0.0000    0.0000 C   0  0  0  0  0  0  0  0  0  0  0  0
    0.0000    0.0000    0.0000 O   0  0  0  0  0  0  0  0  0  0  0  0
    0.0000    0.0000    0.0000 N   0  0  0  0  0  0  0  0  0  0  0  0
    0.0000    0.0000    0.0000 C   0  0  0  0  0  0  0  0  0  0  0  0
    0.0000    0.0000    0.0000 C   0  0  0  0  0  0  0  0  0  0  0  0
    0.0000    0.0000    0.0000 C   0  0  0  0  0  0  0  0  0  0  0  0
    0.0000    0.0000    0.0000 C   0  0  0  0  0  0  0  0  0  0  0  0
    0.0000    0.0000    0.0000 C   0  0  0  0  0  0  0  0  0  0  0  0
    0.0000    0.0000    0.0000 C   0  0  0  0  0  0  0  0  0  0  0  0
    0.0000    0.0000    0.0000 N   0  0  0  0  0  0  0  0  0  0  0  0
    0.0000    0.0000    0.0000 C   0  0  0  0  0  0  0  0  0  0  0  0
    0.0000    0.0000    0.0000 C   0  0  0  0  0  0  0  0  0  0  0  0
    0.0000    0.0000    0.0000 C   0  0  0  0  0  0  0  0  0  0  0  0
    0.0000    0.0000    0.0000 C   0  0  0  0  0  0  0  0  0  0  0  0
    0.0000    0.0000    0.0000 N   0  0  0  0  0  0  0  0  0  0  0  0
    0.0000    0.0000    0.0000 C   0  0  0  0  0  0  0  0  0  0  0  0
    0.0000    0.0000    0.0000 C   0  0  0  0  0  0  0  0  0  0  0  0
    0.0000    0.0000    0.0000 C   0  0  0  0  0  0  0  0  0  0  0  0
    0.0000    0.0000    0.0000 F   0  0  0  0  0  0  0  0  0  0  0  0
    0.0000    0.0000    0.0000 F   0  0  0  0  0  0  0  0  0  0  0  0
    0.0000    0.0000    0.0000 F   0  0  0  0  0  0  0  0  0  0  0  0
  1  2  1  0
  2  3  1  0
  3  4  2  0
  4  5  1  0
  5  6  2  0
  6  7  1  0
  7  8  2  0
  7  9  1  0
  9 10  2  0
 10 11  1  0
 11 12  2  0
 12 13  1  0
 13 14  2  0
 14 15  1  0
 15 16  1  0
 16 17  2  0
 17 18  1  0
 18 19  2  0
 19 20  1  0
 19 21  1  0
 21 22  2  0
 21 23  1  0
 23 24  2  0
 23 25  1  0
 25 26  1  0
 26 27  2  0
 27 28  1  0
 28 29  2  0
 29 30  1  0
 30 31  2  0
 31 32  1  0
 32 33  1  0
 32 34  1  0
 34 35  1  0
 35 36  1  0
 36 37  1  0
 37 38  1  0
 37 39  1  0
 28 40  1  0
 40 41  1  0
 40 42  1  0
 40 43  1  0
  8  3  1  0
 14  9  1  0
 22 16  1  0
 31 26  1  0
M  END
>  <pIC50>  (122) 
5.89

>  <ChEMBL_ID>  (122) 
CHEMBL373882

>  <document_journal>  (122) 
J. Med. Chem.

>  <bao_endpoint>  (122) 
BAO_0000190

>  <potential_duplicate>  (122) 
False

>  <uo_units>  (122) 
UO_0000065

>  <canonical_smiles>  (122) 
CNc1ncnc(n1)c2cccnc2Oc3ccc(F)c(c3)C(=O)Nc4cc(ccc4N(C)CCCN(C)C)C(F)(F)F

>  <parent_molecule_chembl_id>  (122) 
CHEMBL373882

>  <assay_type>  (122) 
B

>  <src_id>  (122) 
1

>  <ligand_efficiency>  (122) 
{u'le': u'0.19', u'bei': u'9.84', u'sei': u'5.44', u'lle': u'0.75'}

>  <standard_flag>  (122) 
True

>  <molecule_chembl_id>  (122) 
CHEMBL373882

>  <target_organism>  (122) 
Homo sapiens

>  <standard_units>  (122) 
nM

>  <record_id>  (122) 
624639

>  <document_chembl_id>  (122) 
CHEMBL1141380

>  <bao_format>  (122) 
BAO_0000357

>  <data_validity_description>  (122) 
None

>  <activity_id>  (122) 
1815192

>  <standard_type>  (122) 
IC50

>  <target_chembl_id>  (122) 
CHEMBL1862

>  <data_validity_comment>  (122) 
None

>  <published_value>  (122) 
1280

>  <document_year>  (122) 
2007

>  <target_pref_name>  (122) 
Tyrosine-protein kinase ABL

>  <assay_chembl_id>  (122) 
CHEMBL908524

>  <standard_relation>  (122) 
=

>  <assay_description>  (122) 
Inhibition of Abl

>  <published_relation>  (122) 
=

>  <standard_value>  (122) 
1280

>  <qudt_units>  (122) 
http://www.openphacts.org/units/Nanomolar

>  <target_tax_id>  (122) 
9606

>  <bao_label>  (122) 
single protein format

>  <published_units>  (122) 
nM

>  <pchembl_value>  (122) 
5.89

>  <published_type>  (122) 
IC50

>  <activity_comment>  (122) 
None

$$$$

     RDKit          

 35 38  0  0  0  0  0  0  0  0999 V2000
    0.0000    0.0000    0.0000 C   0  0  0  0  0  0  0  0  0  0  0  0
    0.0000    0.0000    0.0000 N   0  0  0  0  0  0  0  0  0  0  0  0
    0.0000    0.0000    0.0000 C   0  0  0  0  0  0  0  0  0  0  0  0
    0.0000    0.0000    0.0000 O   0  0  0  0  0  0  0  0  0  0  0  0
    0.0000    0.0000    0.0000 N   0  0  0  0  0  0  0  0  0  0  0  0
    0.0000    0.0000    0.0000 N   0  0  0  0  0  0  0  0  0  0  0  0
    0.0000    0.0000    0.0000 C   0  0  0  0  0  0  0  0  0  0  0  0
    0.0000    0.0000    0.0000 C   0  0  0  0  0  0  0  0  0  0  0  0
    0.0000    0.0000    0.0000 C   0  0  0  0  0  0  0  0  0  0  0  0
    0.0000    0.0000    0.0000 C   0  0  0  0  0  0  0  0  0  0  0  0
    0.0000    0.0000    0.0000 C   0  0  0  0  0  0  0  0  0  0  0  0
    0.0000    0.0000    0.0000 C   0  0  0  0  0  0  0  0  0  0  0  0
    0.0000    0.0000    0.0000 C   0  0  0  0  0  0  0  0  0  0  0  0
    0.0000    0.0000    0.0000 O   0  0  0  0  0  0  0  0  0  0  0  0
    0.0000    0.0000    0.0000 N   0  0  0  0  0  0  0  0  0  0  0  0
    0.0000    0.0000    0.0000 C   0  0  0  0  0  0  0  0  0  0  0  0
    0.0000    0.0000    0.0000 C   0  0  0  0  0  0  0  0  0  0  0  0
    0.0000    0.0000    0.0000 C   0  0  0  0  0  0  0  0  0  0  0  0
    0.0000    0.0000    0.0000 C   0  0  0  0  0  0  0  0  0  0  0  0
    0.0000    0.0000    0.0000 C   0  0  0  0  0  0  0  0  0  0  0  0
    0.0000    0.0000    0.0000 C   0  0  0  0  0  0  0  0  0  0  0  0
    0.0000    0.0000    0.0000 N   0  0  0  0  0  0  0  0  0  0  0  0
    0.0000    0.0000    0.0000 C   0  0  0  0  0  0  0  0  0  0  0  0
    0.0000    0.0000    0.0000 N   0  0  0  0  0  0  0  0  0  0  0  0
    0.0000    0.0000    0.0000 C   0  0  0  0  0  0  0  0  0  0  0  0
    0.0000    0.0000    0.0000 C   0  0  0  0  0  0  0  0  0  0  0  0
    0.0000    0.0000    0.0000 C   0  0  0  0  0  0  0  0  0  0  0  0
    0.0000    0.0000    0.0000 N   0  0  0  0  0  0  0  0  0  0  0  0
    0.0000    0.0000    0.0000 C   0  0  0  0  0  0  0  0  0  0  0  0
    0.0000    0.0000    0.0000 C   0  0  0  0  0  0  0  0  0  0  0  0
    0.0000    0.0000    0.0000 C   0  0  0  0  0  0  0  0  0  0  0  0
    0.0000    0.0000    0.0000 C   0  0  0  0  0  0  0  0  0  0  0  0
    0.0000    0.0000    0.0000 N   0  0  0  0  0  0  0  0  0  0  0  0
    0.0000    0.0000    0.0000 C   0  0  0  0  0  0  0  0  0  0  0  0
    0.0000    0.0000    0.0000 C   0  0  0  0  0  0  0  0  0  0  0  0
  1  2  1  0
  2  3  1  0
  3  4  1  0
  2  5  1  0
  5  6  2  3
  6  7  1  0
  7  8  2  0
  8  9  1  0
  9 10  2  0
 10 11  1  0
 11 12  2  0
 10 13  1  0
 13 14  2  0
 13 15  1  0
 15 16  1  0
 16 17  2  0
 17 18  1  0
 18 19  2  0
 19 20  1  0
 19 21  1  0
 21 22  1  0
 22 23  1  0
 23 24  2  0
 24 25  1  0
 25 26  2  0
 26 27  1  0
 27 28  2  0
 27 29  1  0
 29 30  2  0
 30 31  1  0
 31 32  2  0
 32 33  1  0
 33 34  2  0
 21 35  2  0
 12  7  1  0
 35 16  1  0
 28 23  1  0
 34 29  1  0
M  END
>  <pIC50>  (123) 
5.98

>  <ChEMBL_ID>  (123) 
CHEMBL230286

>  <document_journal>  (123) 
Bioorg. Med. Chem. Lett.

>  <bao_endpoint>  (123) 
BAO_0000190

>  <potential_duplicate>  (123) 
False

>  <uo_units>  (123) 
UO_0000065

>  <canonical_smiles>  (123) 
CN(CO)N=Nc1ccc(cc1)C(=O)Nc2ccc(C)c(Nc3nccc(n3)c4cccnc4)c2

>  <parent_molecule_chembl_id>  (123) 
CHEMBL230286

>  <assay_type>  (123) 
B

>  <src_id>  (123) 
1

>  <ligand_efficiency>  (123) 
{u'le': u'0.23', u'bei': u'12.76', u'sei': u'4.67', u'lle': u'1.96'}

>  <standard_flag>  (123) 
True

>  <molecule_chembl_id>  (123) 
CHEMBL230286

>  <target_organism>  (123) 
Homo sapiens

>  <standard_units>  (123) 
nM

>  <record_id>  (123) 
644306

>  <document_chembl_id>  (123) 
CHEMBL1145434

>  <bao_format>  (123) 
BAO_0000357

>  <data_validity_description>  (123) 
None

>  <activity_id>  (123) 
1907591

>  <standard_type>  (123) 
IC50

>  <target_chembl_id>  (123) 
CHEMBL1862

>  <data_validity_comment>  (123) 
None

>  <published_value>  (123) 
1.057

>  <document_year>  (123) 
2007

>  <target_pref_name>  (123) 
Tyrosine-protein kinase ABL

>  <assay_chembl_id>  (123) 
CHEMBL888888

>  <standard_relation>  (123) 
=

>  <assay_description>  (123) 
Inhibition of c-Abl

>  <published_relation>  (123) 
=

>  <standard_value>  (123) 
1057

>  <qudt_units>  (123) 
http://www.openphacts.org/units/Nanomolar

>  <target_tax_id>  (123) 
9606

>  <bao_label>  (123) 
single protein format

>  <published_units>  (123) 
uM

>  <pchembl_value>  (123) 
5.98

>  <published_type>  (123) 
IC50

>  <activity_comment>  (123) 
None

$$$$

     RDKit          

 34 37  0  0  0  0  0  0  0  0999 V2000
    0.0000    0.0000    0.0000 C   0  0  0  0  0  0  0  0  0  0  0  0
    0.0000    0.0000    0.0000 N   0  0  0  0  0  0  0  0  0  0  0  0
    0.0000    0.0000    0.0000 N   0  0  0  0  0  0  0  0  0  0  0  0
    0.0000    0.0000    0.0000 N   0  0  0  0  0  0  0  0  0  0  0  0
    0.0000    0.0000    0.0000 C   0  0  0  0  0  0  0  0  0  0  0  0
    0.0000    0.0000    0.0000 C   0  0  0  0  0  0  0  0  0  0  0  0
    0.0000    0.0000    0.0000 C   0  0  0  0  0  0  0  0  0  0  0  0
    0.0000    0.0000    0.0000 C   0  0  0  0  0  0  0  0  0  0  0  0
    0.0000    0.0000    0.0000 C   0  0  0  0  0  0  0  0  0  0  0  0
    0.0000    0.0000    0.0000 C   0  0  0  0  0  0  0  0  0  0  0  0
    0.0000    0.0000    0.0000 Cl  0  0  0  0  0  0  0  0  0  0  0  0
    0.0000    0.0000    0.0000 C   0  0  0  0  0  0  0  0  0  0  0  0
    0.0000    0.0000    0.0000 O   0  0  0  0  0  0  0  0  0  0  0  0
    0.0000    0.0000    0.0000 N   0  0  0  0  0  0  0  0  0  0  0  0
    0.0000    0.0000    0.0000 C   0  0  0  0  0  0  0  0  0  0  0  0
    0.0000    0.0000    0.0000 C   0  0  0  0  0  0  0  0  0  0  0  0
    0.0000    0.0000    0.0000 C   0  0  0  0  0  0  0  0  0  0  0  0
    0.0000    0.0000    0.0000 C   0  0  0  0  0  0  0  0  0  0  0  0
    0.0000    0.0000    0.0000 C   0  0  0  0  0  0  0  0  0  0  0  0
    0.0000    0.0000    0.0000 C   0  0  0  0  0  0  0  0  0  0  0  0
    0.0000    0.0000    0.0000 N   0  0  0  0  0  0  0  0  0  0  0  0
    0.0000    0.0000    0.0000 C   0  0  0  0  0  0  0  0  0  0  0  0
    0.0000    0.0000    0.0000 N   0  0  0  0  0  0  0  0  0  0  0  0
    0.0000    0.0000    0.0000 C   0  0  0  0  0  0  0  0  0  0  0  0
    0.0000    0.0000    0.0000 C   0  0  0  0  0  0  0  0  0  0  0  0
    0.0000    0.0000    0.0000 C   0  0  0  0  0  0  0  0  0  0  0  0
    0.0000    0.0000    0.0000 N   0  0  0  0  0  0  0  0  0  0  0  0
    0.0000    0.0000    0.0000 C   0  0  0  0  0  0  0  0  0  0  0  0
    0.0000    0.0000    0.0000 C   0  0  0  0  0  0  0  0  0  0  0  0
    0.0000    0.0000    0.0000 C   0  0  0  0  0  0  0  0  0  0  0  0
    0.0000    0.0000    0.0000 C   0  0  0  0  0  0  0  0  0  0  0  0
    0.0000    0.0000    0.0000 N   0  0  0  0  0  0  0  0  0  0  0  0
    0.0000    0.0000    0.0000 C   0  0  0  0  0  0  0  0  0  0  0  0
    0.0000    0.0000    0.0000 C   0  0  0  0  0  0  0  0  0  0  0  0
  1  2  1  0
  2  3  1  0
  3  4  2  3
  4  5  1  0
  5  6  2  0
  6  7  1  0
  7  8  2  0
  8  9  1  0
  9 10  2  0
 10 11  1  0
  8 12  1  0
 12 13  2  0
 12 14  1  0
 14 15  1  0
 15 16  2  0
 16 17  1  0
 17 18  2  0
 18 19  1  0
 18 20  1  0
 20 21  1  0
 21 22  1  0
 22 23  2  0
 23 24  1  0
 24 25  2  0
 25 26  1  0
 26 27  2  0
 26 28  1  0
 28 29  2  0
 29 30  1  0
 30 31  2  0
 31 32  1  0
 32 33  2  0
 20 34  2  0
 10  5  1  0
 34 15  1  0
 27 22  1  0
 33 28  1  0
M  END
>  <pIC50>  (124) 
6.75

>  <ChEMBL_ID>  (124) 
CHEMBL388934

>  <document_journal>  (124) 
Bioorg. Med. Chem. Lett.

>  <bao_endpoint>  (124) 
BAO_0000190

>  <potential_duplicate>  (124) 
False

>  <uo_units>  (124) 
UO_0000065

>  <canonical_smiles>  (124) 
CNN=Nc1ccc(cc1Cl)C(=O)Nc2ccc(C)c(Nc3nccc(n3)c4cccnc4)c2

>  <parent_molecule_chembl_id>  (124) 
CHEMBL388934

>  <assay_type>  (124) 
B

>  <src_id>  (124) 
1

>  <ligand_efficiency>  (124) 
{u'le': u'0.27', u'bei': u'14.26', u'sei': u'5.79', u'lle': u'1.71'}

>  <standard_flag>  (124) 
True

>  <molecule_chembl_id>  (124) 
CHEMBL388934

>  <target_organism>  (124) 
Homo sapiens

>  <standard_units>  (124) 
nM

>  <record_id>  (124) 
644305

>  <document_chembl_id>  (124) 
CHEMBL1145434

>  <bao_format>  (124) 
BAO_0000357

>  <data_validity_description>  (124) 
None

>  <activity_id>  (124) 
1907592

>  <standard_type>  (124) 
IC50

>  <target_chembl_id>  (124) 
CHEMBL1862

>  <data_validity_comment>  (124) 
None

>  <published_value>  (124) 
0.18

>  <document_year>  (124) 
2007

>  <target_pref_name>  (124) 
Tyrosine-protein kinase ABL

>  <assay_chembl_id>  (124) 
CHEMBL888888

>  <standard_relation>  (124) 
=

>  <assay_description>  (124) 
Inhibition of c-Abl

>  <published_relation>  (124) 
=

>  <standard_value>  (124) 
180

>  <qudt_units>  (124) 
http://www.openphacts.org/units/Nanomolar

>  <target_tax_id>  (124) 
9606

>  <bao_label>  (124) 
single protein format

>  <published_units>  (124) 
uM

>  <pchembl_value>  (124) 
6.75

>  <published_type>  (124) 
IC50

>  <activity_comment>  (124) 
None

$$$$

     RDKit          

 39 42  0  0  0  0  0  0  0  0999 V2000
    0.0000    0.0000    0.0000 C   0  0  0  0  0  0  0  0  0  0  0  0
    0.0000    0.0000    0.0000 N   0  0  0  0  0  0  0  0  0  0  0  0
    0.0000    0.0000    0.0000 C   0  0  0  0  0  0  0  0  0  0  0  0
    0.0000    0.0000    0.0000 O   0  0  0  0  0  0  0  0  0  0  0  0
    0.0000    0.0000    0.0000 N   0  0  0  0  0  0  0  0  0  0  0  0
    0.0000    0.0000    0.0000 N   0  0  0  0  0  0  0  0  0  0  0  0
    0.0000    0.0000    0.0000 C   0  0  0  0  0  0  0  0  0  0  0  0
    0.0000    0.0000    0.0000 C   0  0  0  0  0  0  0  0  0  0  0  0
    0.0000    0.0000    0.0000 C   0  0  0  0  0  0  0  0  0  0  0  0
    0.0000    0.0000    0.0000 C   0  0  0  0  0  0  0  0  0  0  0  0
    0.0000    0.0000    0.0000 C   0  0  0  0  0  0  0  0  0  0  0  0
    0.0000    0.0000    0.0000 C   0  0  0  0  0  0  0  0  0  0  0  0
    0.0000    0.0000    0.0000 C   0  0  0  0  0  0  0  0  0  0  0  0
    0.0000    0.0000    0.0000 F   0  0  0  0  0  0  0  0  0  0  0  0
    0.0000    0.0000    0.0000 F   0  0  0  0  0  0  0  0  0  0  0  0
    0.0000    0.0000    0.0000 F   0  0  0  0  0  0  0  0  0  0  0  0
    0.0000    0.0000    0.0000 C   0  0  0  0  0  0  0  0  0  0  0  0
    0.0000    0.0000    0.0000 O   0  0  0  0  0  0  0  0  0  0  0  0
    0.0000    0.0000    0.0000 N   0  0  0  0  0  0  0  0  0  0  0  0
    0.0000    0.0000    0.0000 C   0  0  0  0  0  0  0  0  0  0  0  0
    0.0000    0.0000    0.0000 C   0  0  0  0  0  0  0  0  0  0  0  0
    0.0000    0.0000    0.0000 C   0  0  0  0  0  0  0  0  0  0  0  0
    0.0000    0.0000    0.0000 C   0  0  0  0  0  0  0  0  0  0  0  0
    0.0000    0.0000    0.0000 C   0  0  0  0  0  0  0  0  0  0  0  0
    0.0000    0.0000    0.0000 C   0  0  0  0  0  0  0  0  0  0  0  0
    0.0000    0.0000    0.0000 N   0  0  0  0  0  0  0  0  0  0  0  0
    0.0000    0.0000    0.0000 C   0  0  0  0  0  0  0  0  0  0  0  0
    0.0000    0.0000    0.0000 N   0  0  0  0  0  0  0  0  0  0  0  0
    0.0000    0.0000    0.0000 C   0  0  0  0  0  0  0  0  0  0  0  0
    0.0000    0.0000    0.0000 C   0  0  0  0  0  0  0  0  0  0  0  0
    0.0000    0.0000    0.0000 C   0  0  0  0  0  0  0  0  0  0  0  0
    0.0000    0.0000    0.0000 N   0  0  0  0  0  0  0  0  0  0  0  0
    0.0000    0.0000    0.0000 C   0  0  0  0  0  0  0  0  0  0  0  0
    0.0000    0.0000    0.0000 C   0  0  0  0  0  0  0  0  0  0  0  0
    0.0000    0.0000    0.0000 C   0  0  0  0  0  0  0  0  0  0  0  0
    0.0000    0.0000    0.0000 C   0  0  0  0  0  0  0  0  0  0  0  0
    0.0000    0.0000    0.0000 N   0  0  0  0  0  0  0  0  0  0  0  0
    0.0000    0.0000    0.0000 C   0  0  0  0  0  0  0  0  0  0  0  0
    0.0000    0.0000    0.0000 C   0  0  0  0  0  0  0  0  0  0  0  0
  1  2  1  0
  2  3  1  0
  3  4  1  0
  2  5  1  0
  5  6  2  3
  6  7  1  0
  7  8  2  0
  8  9  1  0
  9 10  2  0
 10 11  1  0
 11 12  2  0
 12 13  1  0
 13 14  1  0
 13 15  1  0
 13 16  1  0
 10 17  1  0
 17 18  2  0
 17 19  1  0
 19 20  1  0
 20 21  2  0
 21 22  1  0
 22 23  2  0
 23 24  1  0
 23 25  1  0
 25 26  1  0
 26 27  1  0
 27 28  2  0
 28 29  1  0
 29 30  2  0
 30 31  1  0
 31 32  2  0
 31 33  1  0
 33 34  2  0
 34 35  1  0
 35 36  2  0
 36 37  1  0
 37 38  2  0
 25 39  2  0
 12  7  1  0
 39 20  1  0
 32 27  1  0
 38 33  1  0
M  END
>  <pIC50>  (125) 
7.48

>  <ChEMBL_ID>  (125) 
CHEMBL230285

>  <document_journal>  (125) 
Bioorg. Med. Chem. Lett.

>  <bao_endpoint>  (125) 
BAO_0000190

>  <potential_duplicate>  (125) 
False

>  <uo_units>  (125) 
UO_0000065

>  <canonical_smiles>  (125) 
CN(CO)N=Nc1ccc(cc1C(F)(F)F)C(=O)Nc2ccc(C)c(Nc3nccc(n3)c4cccnc4)c2

>  <parent_molecule_chembl_id>  (125) 
CHEMBL230285

>  <assay_type>  (125) 
B

>  <src_id>  (125) 
1

>  <ligand_efficiency>  (125) 
{u'le': u'0.26', u'bei': u'13.94', u'sei': u'5.85', u'lle': u'2.52'}

>  <standard_flag>  (125) 
True

>  <molecule_chembl_id>  (125) 
CHEMBL230285

>  <target_organism>  (125) 
Homo sapiens

>  <standard_units>  (125) 
nM

>  <record_id>  (125) 
644304

>  <document_chembl_id>  (125) 
CHEMBL1145434

>  <bao_format>  (125) 
BAO_0000357

>  <data_validity_description>  (125) 
None

>  <activity_id>  (125) 
1907593

>  <standard_type>  (125) 
IC50

>  <target_chembl_id>  (125) 
CHEMBL1862

>  <data_validity_comment>  (125) 
None

>  <published_value>  (125) 
0.033

>  <document_year>  (125) 
2007

>  <target_pref_name>  (125) 
Tyrosine-protein kinase ABL

>  <assay_chembl_id>  (125) 
CHEMBL888888

>  <standard_relation>  (125) 
=

>  <assay_description>  (125) 
Inhibition of c-Abl

>  <published_relation>  (125) 
=

>  <standard_value>  (125) 
33

>  <qudt_units>  (125) 
http://www.openphacts.org/units/Nanomolar

>  <target_tax_id>  (125) 
9606

>  <bao_label>  (125) 
single protein format

>  <published_units>  (125) 
uM

>  <pchembl_value>  (125) 
7.48

>  <published_type>  (125) 
IC50

>  <activity_comment>  (125) 
None

$$$$

     RDKit          

 38 41  0  0  0  0  0  0  0  0999 V2000
    0.0000    0.0000    0.0000 C   0  0  0  0  0  0  0  0  0  0  0  0
    0.0000    0.0000    0.0000 N   0  0  0  0  0  0  0  0  0  0  0  0
    0.0000    0.0000    0.0000 C   0  0  0  0  0  0  0  0  0  0  0  0
    0.0000    0.0000    0.0000 N   0  0  0  0  0  0  0  0  0  0  0  0
    0.0000    0.0000    0.0000 N   0  0  0  0  0  0  0  0  0  0  0  0
    0.0000    0.0000    0.0000 C   0  0  0  0  0  0  0  0  0  0  0  0
    0.0000    0.0000    0.0000 C   0  0  0  0  0  0  0  0  0  0  0  0
    0.0000    0.0000    0.0000 C   0  0  0  0  0  0  0  0  0  0  0  0
    0.0000    0.0000    0.0000 C   0  0  0  0  0  0  0  0  0  0  0  0
    0.0000    0.0000    0.0000 C   0  0  0  0  0  0  0  0  0  0  0  0
    0.0000    0.0000    0.0000 C   0  0  0  0  0  0  0  0  0  0  0  0
    0.0000    0.0000    0.0000 C   0  0  0  0  0  0  0  0  0  0  0  0
    0.0000    0.0000    0.0000 F   0  0  0  0  0  0  0  0  0  0  0  0
    0.0000    0.0000    0.0000 F   0  0  0  0  0  0  0  0  0  0  0  0
    0.0000    0.0000    0.0000 F   0  0  0  0  0  0  0  0  0  0  0  0
    0.0000    0.0000    0.0000 C   0  0  0  0  0  0  0  0  0  0  0  0
    0.0000    0.0000    0.0000 O   0  0  0  0  0  0  0  0  0  0  0  0
    0.0000    0.0000    0.0000 N   0  0  0  0  0  0  0  0  0  0  0  0
    0.0000    0.0000    0.0000 C   0  0  0  0  0  0  0  0  0  0  0  0
    0.0000    0.0000    0.0000 C   0  0  0  0  0  0  0  0  0  0  0  0
    0.0000    0.0000    0.0000 C   0  0  0  0  0  0  0  0  0  0  0  0
    0.0000    0.0000    0.0000 C   0  0  0  0  0  0  0  0  0  0  0  0
    0.0000    0.0000    0.0000 C   0  0  0  0  0  0  0  0  0  0  0  0
    0.0000    0.0000    0.0000 C   0  0  0  0  0  0  0  0  0  0  0  0
    0.0000    0.0000    0.0000 N   0  0  0  0  0  0  0  0  0  0  0  0
    0.0000    0.0000    0.0000 C   0  0  0  0  0  0  0  0  0  0  0  0
    0.0000    0.0000    0.0000 N   0  0  0  0  0  0  0  0  0  0  0  0
    0.0000    0.0000    0.0000 C   0  0  0  0  0  0  0  0  0  0  0  0
    0.0000    0.0000    0.0000 C   0  0  0  0  0  0  0  0  0  0  0  0
    0.0000    0.0000    0.0000 C   0  0  0  0  0  0  0  0  0  0  0  0
    0.0000    0.0000    0.0000 N   0  0  0  0  0  0  0  0  0  0  0  0
    0.0000    0.0000    0.0000 C   0  0  0  0  0  0  0  0  0  0  0  0
    0.0000    0.0000    0.0000 C   0  0  0  0  0  0  0  0  0  0  0  0
    0.0000    0.0000    0.0000 C   0  0  0  0  0  0  0  0  0  0  0  0
    0.0000    0.0000    0.0000 C   0  0  0  0  0  0  0  0  0  0  0  0
    0.0000    0.0000    0.0000 N   0  0  0  0  0  0  0  0  0  0  0  0
    0.0000    0.0000    0.0000 C   0  0  0  0  0  0  0  0  0  0  0  0
    0.0000    0.0000    0.0000 C   0  0  0  0  0  0  0  0  0  0  0  0
  1  2  1  0
  2  3  1  0
  2  4  1  0
  4  5  2  3
  5  6  1  0
  6  7  2  0
  7  8  1  0
  8  9  2  0
  9 10  1  0
 10 11  2  0
 11 12  1  0
 12 13  1  0
 12 14  1  0
 12 15  1  0
  9 16  1  0
 16 17  2  0
 16 18  1  0
 18 19  1  0
 19 20  2  0
 20 21  1  0
 21 22  2  0
 22 23  1  0
 22 24  1  0
 24 25  1  0
 25 26  1  0
 26 27  2  0
 27 28  1  0
 28 29  2  0
 29 30  1  0
 30 31  2  0
 30 32  1  0
 32 33  2  0
 33 34  1  0
 34 35  2  0
 35 36  1  0
 36 37  2  0
 24 38  2  0
 11  6  1  0
 38 19  1  0
 31 26  1  0
 37 32  1  0
M  END
>  <pIC50>  (126) 
7.75

>  <ChEMBL_ID>  (126) 
CHEMBL230178

>  <document_journal>  (126) 
Bioorg. Med. Chem. Lett.

>  <bao_endpoint>  (126) 
BAO_0000190

>  <potential_duplicate>  (126) 
False

>  <uo_units>  (126) 
UO_0000065

>  <canonical_smiles>  (126) 
CN(C)N=Nc1ccc(cc1C(F)(F)F)C(=O)Nc2ccc(C)c(Nc3nccc(n3)c4cccnc4)c2

>  <parent_molecule_chembl_id>  (126) 
CHEMBL230178

>  <assay_type>  (126) 
B

>  <src_id>  (126) 
1

>  <ligand_efficiency>  (126) 
{u'le': u'0.28', u'bei': u'14.88', u'sei': u'7.19', u'lle': u'2.22'}

>  <standard_flag>  (126) 
True

>  <molecule_chembl_id>  (126) 
CHEMBL230178

>  <target_organism>  (126) 
Homo sapiens

>  <standard_units>  (126) 
nM

>  <record_id>  (126) 
644303

>  <document_chembl_id>  (126) 
CHEMBL1145434

>  <bao_format>  (126) 
BAO_0000357

>  <data_validity_description>  (126) 
None

>  <activity_id>  (126) 
1907594

>  <standard_type>  (126) 
IC50

>  <target_chembl_id>  (126) 
CHEMBL1862

>  <data_validity_comment>  (126) 
None

>  <published_value>  (126) 
0.018

>  <document_year>  (126) 
2007

>  <target_pref_name>  (126) 
Tyrosine-protein kinase ABL

>  <assay_chembl_id>  (126) 
CHEMBL888888

>  <standard_relation>  (126) 
=

>  <assay_description>  (126) 
Inhibition of c-Abl

>  <published_relation>  (126) 
=

>  <standard_value>  (126) 
18

>  <qudt_units>  (126) 
http://www.openphacts.org/units/Nanomolar

>  <target_tax_id>  (126) 
9606

>  <bao_label>  (126) 
single protein format

>  <published_units>  (126) 
uM

>  <pchembl_value>  (126) 
7.75

>  <published_type>  (126) 
IC50

>  <activity_comment>  (126) 
None

$$$$

     RDKit          

 37 40  0  0  0  0  0  0  0  0999 V2000
    0.0000    0.0000    0.0000 C   0  0  0  0  0  0  0  0  0  0  0  0
    0.0000    0.0000    0.0000 N   0  0  0  0  0  0  0  0  0  0  0  0
    0.0000    0.0000    0.0000 N   0  0  0  0  0  0  0  0  0  0  0  0
    0.0000    0.0000    0.0000 N   0  0  0  0  0  0  0  0  0  0  0  0
    0.0000    0.0000    0.0000 C   0  0  0  0  0  0  0  0  0  0  0  0
    0.0000    0.0000    0.0000 C   0  0  0  0  0  0  0  0  0  0  0  0
    0.0000    0.0000    0.0000 C   0  0  0  0  0  0  0  0  0  0  0  0
    0.0000    0.0000    0.0000 C   0  0  0  0  0  0  0  0  0  0  0  0
    0.0000    0.0000    0.0000 C   0  0  0  0  0  0  0  0  0  0  0  0
    0.0000    0.0000    0.0000 C   0  0  0  0  0  0  0  0  0  0  0  0
    0.0000    0.0000    0.0000 C   0  0  0  0  0  0  0  0  0  0  0  0
    0.0000    0.0000    0.0000 F   0  0  0  0  0  0  0  0  0  0  0  0
    0.0000    0.0000    0.0000 F   0  0  0  0  0  0  0  0  0  0  0  0
    0.0000    0.0000    0.0000 F   0  0  0  0  0  0  0  0  0  0  0  0
    0.0000    0.0000    0.0000 C   0  0  0  0  0  0  0  0  0  0  0  0
    0.0000    0.0000    0.0000 O   0  0  0  0  0  0  0  0  0  0  0  0
    0.0000    0.0000    0.0000 N   0  0  0  0  0  0  0  0  0  0  0  0
    0.0000    0.0000    0.0000 C   0  0  0  0  0  0  0  0  0  0  0  0
    0.0000    0.0000    0.0000 C   0  0  0  0  0  0  0  0  0  0  0  0
    0.0000    0.0000    0.0000 C   0  0  0  0  0  0  0  0  0  0  0  0
    0.0000    0.0000    0.0000 C   0  0  0  0  0  0  0  0  0  0  0  0
    0.0000    0.0000    0.0000 C   0  0  0  0  0  0  0  0  0  0  0  0
    0.0000    0.0000    0.0000 C   0  0  0  0  0  0  0  0  0  0  0  0
    0.0000    0.0000    0.0000 N   0  0  0  0  0  0  0  0  0  0  0  0
    0.0000    0.0000    0.0000 C   0  0  0  0  0  0  0  0  0  0  0  0
    0.0000    0.0000    0.0000 N   0  0  0  0  0  0  0  0  0  0  0  0
    0.0000    0.0000    0.0000 C   0  0  0  0  0  0  0  0  0  0  0  0
    0.0000    0.0000    0.0000 C   0  0  0  0  0  0  0  0  0  0  0  0
    0.0000    0.0000    0.0000 C   0  0  0  0  0  0  0  0  0  0  0  0
    0.0000    0.0000    0.0000 N   0  0  0  0  0  0  0  0  0  0  0  0
    0.0000    0.0000    0.0000 C   0  0  0  0  0  0  0  0  0  0  0  0
    0.0000    0.0000    0.0000 C   0  0  0  0  0  0  0  0  0  0  0  0
    0.0000    0.0000    0.0000 C   0  0  0  0  0  0  0  0  0  0  0  0
    0.0000    0.0000    0.0000 C   0  0  0  0  0  0  0  0  0  0  0  0
    0.0000    0.0000    0.0000 N   0  0  0  0  0  0  0  0  0  0  0  0
    0.0000    0.0000    0.0000 C   0  0  0  0  0  0  0  0  0  0  0  0
    0.0000    0.0000    0.0000 C   0  0  0  0  0  0  0  0  0  0  0  0
  1  2  1  0
  2  3  1  0
  3  4  2  3
  4  5  1  0
  5  6  2  0
  6  7  1  0
  7  8  2  0
  8  9  1  0
  9 10  2  0
 10 11  1  0
 11 12  1  0
 11 13  1  0
 11 14  1  0
  8 15  1  0
 15 16  2  0
 15 17  1  0
 17 18  1  0
 18 19  2  0
 19 20  1  0
 20 21  2  0
 21 22  1  0
 21 23  1  0
 23 24  1  0
 24 25  1  0
 25 26  2  0
 26 27  1  0
 27 28  2  0
 28 29  1  0
 29 30  2  0
 29 31  1  0
 31 32  2  0
 32 33  1  0
 33 34  2  0
 34 35  1  0
 35 36  2  0
 23 37  2  0
 10  5  1  0
 37 18  1  0
 30 25  1  0
 36 31  1  0
M  END
>  <pIC50>  (127) 
7.55

>  <ChEMBL_ID>  (127) 
CHEMBL230065

>  <document_journal>  (127) 
Bioorg. Med. Chem. Lett.

>  <bao_endpoint>  (127) 
BAO_0000190

>  <potential_duplicate>  (127) 
False

>  <uo_units>  (127) 
UO_0000065

>  <canonical_smiles>  (127) 
CNN=Nc1ccc(cc1C(F)(F)F)C(=O)Nc2ccc(C)c(Nc3nccc(n3)c4cccnc4)c2

>  <parent_molecule_chembl_id>  (127) 
CHEMBL230065

>  <assay_type>  (127) 
B

>  <src_id>  (127) 
1

>  <ligand_efficiency>  (127) 
{u'le': u'0.28', u'bei': u'14.91', u'sei': u'6.48', u'lle': u'2.24'}

>  <standard_flag>  (127) 
True

>  <molecule_chembl_id>  (127) 
CHEMBL230065

>  <target_organism>  (127) 
Homo sapiens

>  <standard_units>  (127) 
nM

>  <record_id>  (127) 
644302

>  <document_chembl_id>  (127) 
CHEMBL1145434

>  <bao_format>  (127) 
BAO_0000357

>  <data_validity_description>  (127) 
None

>  <activity_id>  (127) 
1907595

>  <standard_type>  (127) 
IC50

>  <target_chembl_id>  (127) 
CHEMBL1862

>  <data_validity_comment>  (127) 
None

>  <published_value>  (127) 
0.028

>  <document_year>  (127) 
2007

>  <target_pref_name>  (127) 
Tyrosine-protein kinase ABL

>  <assay_chembl_id>  (127) 
CHEMBL888888

>  <standard_relation>  (127) 
=

>  <assay_description>  (127) 
Inhibition of c-Abl

>  <published_relation>  (127) 
=

>  <standard_value>  (127) 
28

>  <qudt_units>  (127) 
http://www.openphacts.org/units/Nanomolar

>  <target_tax_id>  (127) 
9606

>  <bao_label>  (127) 
single protein format

>  <published_units>  (127) 
uM

>  <pchembl_value>  (127) 
7.55

>  <published_type>  (127) 
IC50

>  <activity_comment>  (127) 
None

$$$$

     RDKit          

 34 37  0  0  0  0  0  0  0  0999 V2000
    0.0000    0.0000    0.0000 C   0  0  0  0  0  0  0  0  0  0  0  0
    0.0000    0.0000    0.0000 C   0  0  0  0  0  0  0  0  0  0  0  0
    0.0000    0.0000    0.0000 C   0  0  0  0  0  0  0  0  0  0  0  0
    0.0000    0.0000    0.0000 C   0  0  0  0  0  0  0  0  0  0  0  0
    0.0000    0.0000    0.0000 C   0  0  0  0  0  0  0  0  0  0  0  0
    0.0000    0.0000    0.0000 N   0  0  0  0  0  0  0  0  0  0  0  0
    0.0000    0.0000    0.0000 C   0  0  0  0  0  0  0  0  0  0  0  0
    0.0000    0.0000    0.0000 O   0  0  0  0  0  0  0  0  0  0  0  0
    0.0000    0.0000    0.0000 C   0  0  0  0  0  0  0  0  0  0  0  0
    0.0000    0.0000    0.0000 C   0  0  0  0  0  0  0  0  0  0  0  0
    0.0000    0.0000    0.0000 C   0  0  0  0  0  0  0  0  0  0  0  0
    0.0000    0.0000    0.0000 C   0  0  0  0  0  0  0  0  0  0  0  0
    0.0000    0.0000    0.0000 N   0  0  0  0  0  0  0  0  0  0  0  0
    0.0000    0.0000    0.0000 C   0  0  0  0  0  0  0  0  0  0  0  0
    0.0000    0.0000    0.0000 C   0  0  0  0  0  0  0  0  0  0  0  0
    0.0000    0.0000    0.0000 C   0  0  0  0  0  0  0  0  0  0  0  0
    0.0000    0.0000    0.0000 F   0  0  0  0  0  0  0  0  0  0  0  0
    0.0000    0.0000    0.0000 F   0  0  0  0  0  0  0  0  0  0  0  0
    0.0000    0.0000    0.0000 F   0  0  0  0  0  0  0  0  0  0  0  0
    0.0000    0.0000    0.0000 C   0  0  0  0  0  0  0  0  0  0  0  0
    0.0000    0.0000    0.0000 C   0  0  0  0  0  0  0  0  0  0  0  0
    0.0000    0.0000    0.0000 N   0  0  0  0  0  0  0  0  0  0  0  0
    0.0000    0.0000    0.0000 C   0  0  0  0  0  0  0  0  0  0  0  0
    0.0000    0.0000    0.0000 N   0  0  0  0  0  0  0  0  0  0  0  0
    0.0000    0.0000    0.0000 C   0  0  0  0  0  0  0  0  0  0  0  0
    0.0000    0.0000    0.0000 C   0  0  0  0  0  0  0  0  0  0  0  0
    0.0000    0.0000    0.0000 C   0  0  0  0  0  0  0  0  0  0  0  0
    0.0000    0.0000    0.0000 N   0  0  0  0  0  0  0  0  0  0  0  0
    0.0000    0.0000    0.0000 C   0  0  0  0  0  0  0  0  0  0  0  0
    0.0000    0.0000    0.0000 C   0  0  0  0  0  0  0  0  0  0  0  0
    0.0000    0.0000    0.0000 C   0  0  0  0  0  0  0  0  0  0  0  0
    0.0000    0.0000    0.0000 C   0  0  0  0  0  0  0  0  0  0  0  0
    0.0000    0.0000    0.0000 N   0  0  0  0  0  0  0  0  0  0  0  0
    0.0000    0.0000    0.0000 C   0  0  0  0  0  0  0  0  0  0  0  0
  1  2  1  0
  2  3  2  0
  3  4  1  0
  4  5  2  0
  5  6  1  0
  6  7  1  0
  7  8  2  0
  7  9  1  0
  9 10  2  0
 10 11  1  0
 11 12  2  0
 12 13  1  0
 12 14  1  0
 14 15  2  0
 14 16  1  0
 16 17  1  0
 16 18  1  0
 16 19  1  0
  5 20  1  0
 20 21  2  0
 21 22  1  0
 22 23  1  0
 23 24  2  0
 24 25  1  0
 25 26  2  0
 26 27  1  0
 27 28  2  0
 27 29  1  0
 29 30  2  0
 30 31  1  0
 31 32  2  0
 32 33  1  0
 33 34  2  0
 21  2  1  0
 15  9  1  0
 28 23  1  0
 34 29  1  0
M  END
>  <pIC50>  (128) 
6.81

>  <ChEMBL_ID>  (128) 
CHEMBL230064

>  <document_journal>  (128) 
Bioorg. Med. Chem. Lett.

>  <bao_endpoint>  (128) 
BAO_0000190

>  <potential_duplicate>  (128) 
False

>  <uo_units>  (128) 
UO_0000065

>  <canonical_smiles>  (128) 
Cc1ccc(NC(=O)c2ccc(N)c(c2)C(F)(F)F)cc1Nc3nccc(n3)c4cccnc4

>  <parent_molecule_chembl_id>  (128) 
CHEMBL230064

>  <assay_type>  (128) 
B

>  <src_id>  (128) 
1

>  <ligand_efficiency>  (128) 
{u'le': u'0.27', u'bei': u'14.66', u'sei': u'6.43', u'lle': u'2.42'}

>  <standard_flag>  (128) 
True

>  <molecule_chembl_id>  (128) 
CHEMBL230064

>  <target_organism>  (128) 
Homo sapiens

>  <standard_units>  (128) 
nM

>  <record_id>  (128) 
644300

>  <document_chembl_id>  (128) 
CHEMBL1145434

>  <bao_format>  (128) 
BAO_0000357

>  <data_validity_description>  (128) 
None

>  <activity_id>  (128) 
1907597

>  <standard_type>  (128) 
IC50

>  <target_chembl_id>  (128) 
CHEMBL1862

>  <data_validity_comment>  (128) 
None

>  <published_value>  (128) 
0.156

>  <document_year>  (128) 
2007

>  <target_pref_name>  (128) 
Tyrosine-protein kinase ABL

>  <assay_chembl_id>  (128) 
CHEMBL888888

>  <standard_relation>  (128) 
=

>  <assay_description>  (128) 
Inhibition of c-Abl

>  <published_relation>  (128) 
=

>  <standard_value>  (128) 
156

>  <qudt_units>  (128) 
http://www.openphacts.org/units/Nanomolar

>  <target_tax_id>  (128) 
9606

>  <bao_label>  (128) 
single protein format

>  <published_units>  (128) 
uM

>  <pchembl_value>  (128) 
6.81

>  <published_type>  (128) 
IC50

>  <activity_comment>  (128) 
None

$$$$

     RDKit          

 35 38  0  0  0  0  0  0  0  0999 V2000
    0.0000    0.0000    0.0000 C   0  0  0  0  0  0  0  0  0  0  0  0
    0.0000    0.0000    0.0000 N   0  0  0  0  0  0  0  0  0  0  0  0
    0.0000    0.0000    0.0000 C   0  0  0  0  0  0  0  0  0  0  0  0
    0.0000    0.0000    0.0000 C   0  0  0  0  0  0  0  0  0  0  0  0
    0.0000    0.0000    0.0000 Cl  0  0  0  0  0  0  0  0  0  0  0  0
    0.0000    0.0000    0.0000 C   0  0  0  0  0  0  0  0  0  0  0  0
    0.0000    0.0000    0.0000 C   0  0  0  0  0  0  0  0  0  0  0  0
    0.0000    0.0000    0.0000 C   0  0  0  0  0  0  0  0  0  0  0  0
    0.0000    0.0000    0.0000 C   0  0  0  0  0  0  0  0  0  0  0  0
    0.0000    0.0000    0.0000 C   0  0  0  0  0  0  0  0  0  0  0  0
    0.0000    0.0000    0.0000 C   0  0  0  0  0  0  0  0  0  0  0  0
    0.0000    0.0000    0.0000 C   0  0  0  0  0  0  0  0  0  0  0  0
    0.0000    0.0000    0.0000 C   0  0  0  0  0  0  0  0  0  0  0  0
    0.0000    0.0000    0.0000 O   0  0  0  0  0  0  0  0  0  0  0  0
    0.0000    0.0000    0.0000 N   0  0  0  0  0  0  0  0  0  0  0  0
    0.0000    0.0000    0.0000 C   0  0  0  0  0  0  0  0  0  0  0  0
    0.0000    0.0000    0.0000 C   0  0  0  0  0  0  0  0  0  0  0  0
    0.0000    0.0000    0.0000 C   0  0  0  0  0  0  0  0  0  0  0  0
    0.0000    0.0000    0.0000 C   0  0  0  0  0  0  0  0  0  0  0  0
    0.0000    0.0000    0.0000 C   0  0  0  0  0  0  0  0  0  0  0  0
    0.0000    0.0000    0.0000 C   0  0  0  0  0  0  0  0  0  0  0  0
    0.0000    0.0000    0.0000 N   0  0  0  0  0  0  0  0  0  0  0  0
    0.0000    0.0000    0.0000 C   0  0  0  0  0  0  0  0  0  0  0  0
    0.0000    0.0000    0.0000 N   0  0  0  0  0  0  0  0  0  0  0  0
    0.0000    0.0000    0.0000 C   0  0  0  0  0  0  0  0  0  0  0  0
    0.0000    0.0000    0.0000 C   0  0  0  0  0  0  0  0  0  0  0  0
    0.0000    0.0000    0.0000 C   0  0  0  0  0  0  0  0  0  0  0  0
    0.0000    0.0000    0.0000 N   0  0  0  0  0  0  0  0  0  0  0  0
    0.0000    0.0000    0.0000 C   0  0  0  0  0  0  0  0  0  0  0  0
    0.0000    0.0000    0.0000 C   0  0  0  0  0  0  0  0  0  0  0  0
    0.0000    0.0000    0.0000 C   0  0  0  0  0  0  0  0  0  0  0  0
    0.0000    0.0000    0.0000 C   0  0  0  0  0  0  0  0  0  0  0  0
    0.0000    0.0000    0.0000 N   0  0  0  0  0  0  0  0  0  0  0  0
    0.0000    0.0000    0.0000 C   0  0  0  0  0  0  0  0  0  0  0  0
    0.0000    0.0000    0.0000 C   0  0  0  0  0  0  0  0  0  0  0  0
  1  2  1  0
  2  3  1  0
  3  4  1  0
  4  5  1  0
  2  6  1  0
  6  7  1  0
  7  8  2  0
  8  9  1  0
  9 10  2  0
 10 11  1  0
 11 12  2  0
 10 13  1  0
 13 14  2  0
 13 15  1  0
 15 16  1  0
 16 17  2  0
 17 18  1  0
 18 19  2  0
 19 20  1  0
 19 21  1  0
 21 22  1  0
 22 23  1  0
 23 24  2  0
 24 25  1  0
 25 26  2  0
 26 27  1  0
 27 28  2  0
 27 29  1  0
 29 30  2  0
 30 31  1  0
 31 32  2  0
 32 33  1  0
 33 34  2  0
 21 35  2  0
 12  7  1  0
 35 16  1  0
 28 23  1  0
 34 29  1  0
M  END
>  <pIC50>  (129) 
5.51

>  <ChEMBL_ID>  (129) 
CHEMBL231633

>  <document_journal>  (129) 
Bioorg. Med. Chem. Lett.

>  <bao_endpoint>  (129) 
BAO_0000190

>  <potential_duplicate>  (129) 
False

>  <uo_units>  (129) 
UO_0000065

>  <canonical_smiles>  (129) 
CN(CCCl)Cc1ccc(cc1)C(=O)Nc2ccc(C)c(Nc3nccc(n3)c4cccnc4)c2

>  <parent_molecule_chembl_id>  (129) 
CHEMBL231633

>  <assay_type>  (129) 
B

>  <src_id>  (129) 
1

>  <ligand_efficiency>  (129) 
{u'le': u'0.21', u'bei': u'11.31', u'sei': u'6.63', u'lle': u'0.58'}

>  <standard_flag>  (129) 
True

>  <molecule_chembl_id>  (129) 
CHEMBL231633

>  <target_organism>  (129) 
Homo sapiens

>  <standard_units>  (129) 
nM

>  <record_id>  (129) 
644298

>  <document_chembl_id>  (129) 
CHEMBL1145434

>  <bao_format>  (129) 
BAO_0000357

>  <data_validity_description>  (129) 
None

>  <activity_id>  (129) 
1907599

>  <standard_type>  (129) 
IC50

>  <target_chembl_id>  (129) 
CHEMBL1862

>  <data_validity_comment>  (129) 
None

>  <published_value>  (129) 
3.11

>  <document_year>  (129) 
2007

>  <target_pref_name>  (129) 
Tyrosine-protein kinase ABL

>  <assay_chembl_id>  (129) 
CHEMBL888888

>  <standard_relation>  (129) 
=

>  <assay_description>  (129) 
Inhibition of c-Abl

>  <published_relation>  (129) 
=

>  <standard_value>  (129) 
3110

>  <qudt_units>  (129) 
http://www.openphacts.org/units/Nanomolar

>  <target_tax_id>  (129) 
9606

>  <bao_label>  (129) 
single protein format

>  <published_units>  (129) 
uM

>  <pchembl_value>  (129) 
5.51

>  <published_type>  (129) 
IC50

>  <activity_comment>  (129) 
None

$$$$

     RDKit          

 36 39  0  0  0  0  0  0  0  0999 V2000
    0.0000    0.0000    0.0000 C   0  0  0  0  0  0  0  0  0  0  0  0
    0.0000    0.0000    0.0000 C   0  0  0  0  0  0  0  0  0  0  0  0
    0.0000    0.0000    0.0000 C   0  0  0  0  0  0  0  0  0  0  0  0
    0.0000    0.0000    0.0000 C   0  0  0  0  0  0  0  0  0  0  0  0
    0.0000    0.0000    0.0000 C   0  0  0  0  0  0  0  0  0  0  0  0
    0.0000    0.0000    0.0000 N   0  0  0  0  0  0  0  0  0  0  0  0
    0.0000    0.0000    0.0000 C   0  0  0  0  0  0  0  0  0  0  0  0
    0.0000    0.0000    0.0000 O   0  0  0  0  0  0  0  0  0  0  0  0
    0.0000    0.0000    0.0000 C   0  0  0  0  0  0  0  0  0  0  0  0
    0.0000    0.0000    0.0000 C   0  0  0  0  0  0  0  0  0  0  0  0
    0.0000    0.0000    0.0000 C   0  0  0  0  0  0  0  0  0  0  0  0
    0.0000    0.0000    0.0000 C   0  0  0  0  0  0  0  0  0  0  0  0
    0.0000    0.0000    0.0000 C   0  0  0  0  0  0  0  0  0  0  0  0
    0.0000    0.0000    0.0000 C   0  0  0  0  0  0  0  0  0  0  0  0
    0.0000    0.0000    0.0000 N   0  0  0  0  0  0  0  0  0  0  0  0
    0.0000    0.0000    0.0000 C   0  0  0  0  0  0  0  0  0  0  0  0
    0.0000    0.0000    0.0000 C   0  0  0  0  0  0  0  0  0  0  0  0
    0.0000    0.0000    0.0000 Cl  0  0  0  0  0  0  0  0  0  0  0  0
    0.0000    0.0000    0.0000 C   0  0  0  0  0  0  0  0  0  0  0  0
    0.0000    0.0000    0.0000 C   0  0  0  0  0  0  0  0  0  0  0  0
    0.0000    0.0000    0.0000 Cl  0  0  0  0  0  0  0  0  0  0  0  0
    0.0000    0.0000    0.0000 C   0  0  0  0  0  0  0  0  0  0  0  0
    0.0000    0.0000    0.0000 C   0  0  0  0  0  0  0  0  0  0  0  0
    0.0000    0.0000    0.0000 N   0  0  0  0  0  0  0  0  0  0  0  0
    0.0000    0.0000    0.0000 C   0  0  0  0  0  0  0  0  0  0  0  0
    0.0000    0.0000    0.0000 N   0  0  0  0  0  0  0  0  0  0  0  0
    0.0000    0.0000    0.0000 C   0  0  0  0  0  0  0  0  0  0  0  0
    0.0000    0.0000    0.0000 C   0  0  0  0  0  0  0  0  0  0  0  0
    0.0000    0.0000    0.0000 C   0  0  0  0  0  0  0  0  0  0  0  0
    0.0000    0.0000    0.0000 N   0  0  0  0  0  0  0  0  0  0  0  0
    0.0000    0.0000    0.0000 C   0  0  0  0  0  0  0  0  0  0  0  0
    0.0000    0.0000    0.0000 C   0  0  0  0  0  0  0  0  0  0  0  0
    0.0000    0.0000    0.0000 C   0  0  0  0  0  0  0  0  0  0  0  0
    0.0000    0.0000    0.0000 C   0  0  0  0  0  0  0  0  0  0  0  0
    0.0000    0.0000    0.0000 N   0  0  0  0  0  0  0  0  0  0  0  0
    0.0000    0.0000    0.0000 C   0  0  0  0  0  0  0  0  0  0  0  0
  1  2  1  0
  2  3  2  0
  3  4  1  0
  4  5  2  0
  5  6  1  0
  6  7  1  0
  7  8  2  0
  7  9  1  0
  9 10  2  0
 10 11  1  0
 11 12  2  0
 12 13  1  0
 13 14  2  0
 12 15  1  0
 15 16  1  0
 16 17  1  0
 17 18  1  0
 15 19  1  0
 19 20  1  0
 20 21  1  0
  5 22  1  0
 22 23  2  0
 23 24  1  0
 24 25  1  0
 25 26  2  0
 26 27  1  0
 27 28  2  0
 28 29  1  0
 29 30  2  0
 29 31  1  0
 31 32  2  0
 32 33  1  0
 33 34  2  0
 34 35  1  0
 35 36  2  0
 23  2  1  0
 14  9  1  0
 30 25  1  0
 36 31  1  0
M  END
>  <pIC50>  (130) 
6.66

>  <ChEMBL_ID>  (130) 
CHEMBL231632

>  <document_journal>  (130) 
Bioorg. Med. Chem. Lett.

>  <bao_endpoint>  (130) 
BAO_0000190

>  <potential_duplicate>  (130) 
False

>  <uo_units>  (130) 
UO_0000065

>  <canonical_smiles>  (130) 
Cc1ccc(NC(=O)c2ccc(cc2)N(CCCl)CCCl)cc1Nc3nccc(n3)c4cccnc4

>  <parent_molecule_chembl_id>  (130) 
CHEMBL231632

>  <assay_type>  (130) 
B

>  <src_id>  (130) 
1

>  <ligand_efficiency>  (130) 
{u'le': u'0.25', u'bei': u'12.77', u'sei': u'8.02', u'lle': u'0.98'}

>  <standard_flag>  (130) 
True

>  <molecule_chembl_id>  (130) 
CHEMBL231632

>  <target_organism>  (130) 
Homo sapiens

>  <standard_units>  (130) 
nM

>  <record_id>  (130) 
644297

>  <document_chembl_id>  (130) 
CHEMBL1145434

>  <bao_format>  (130) 
BAO_0000357

>  <data_validity_description>  (130) 
None

>  <activity_id>  (130) 
1907600

>  <standard_type>  (130) 
IC50

>  <target_chembl_id>  (130) 
CHEMBL1862

>  <data_validity_comment>  (130) 
None

>  <published_value>  (130) 
0.22

>  <document_year>  (130) 
2007

>  <target_pref_name>  (130) 
Tyrosine-protein kinase ABL

>  <assay_chembl_id>  (130) 
CHEMBL888888

>  <standard_relation>  (130) 
=

>  <assay_description>  (130) 
Inhibition of c-Abl

>  <published_relation>  (130) 
=

>  <standard_value>  (130) 
220

>  <qudt_units>  (130) 
http://www.openphacts.org/units/Nanomolar

>  <target_tax_id>  (130) 
9606

>  <bao_label>  (130) 
single protein format

>  <published_units>  (130) 
uM

>  <pchembl_value>  (130) 
6.66

>  <published_type>  (130) 
IC50

>  <activity_comment>  (130) 
None

$$$$

     RDKit          

 41 45  0  0  0  0  0  0  0  0999 V2000
    0.0000    0.0000    0.0000 C   0  0  0  0  0  0  0  0  0  0  0  0
    0.0000    0.0000    0.0000 N   0  0  0  0  0  0  0  0  0  0  0  0
    0.0000    0.0000    0.0000 C   0  0  0  0  0  0  0  0  0  0  0  0
    0.0000    0.0000    0.0000 C   0  0  0  0  0  0  0  0  0  0  0  0
    0.0000    0.0000    0.0000 C   0  0  0  0  0  0  0  0  0  0  0  0
    0.0000    0.0000    0.0000 N   0  0  0  0  0  0  0  0  0  0  0  0
    0.0000    0.0000    0.0000 C   0  0  0  0  0  0  0  0  0  0  0  0
    0.0000    0.0000    0.0000 C   0  0  0  0  0  0  0  0  0  0  0  0
    0.0000    0.0000    0.0000 C   0  0  0  0  0  0  0  0  0  0  0  0
    0.0000    0.0000    0.0000 C   0  0  0  0  0  0  0  0  0  0  0  0
    0.0000    0.0000    0.0000 C   0  0  0  0  0  0  0  0  0  0  0  0
    0.0000    0.0000    0.0000 C   0  0  0  0  0  0  0  0  0  0  0  0
    0.0000    0.0000    0.0000 C   0  0  0  0  0  0  0  0  0  0  0  0
    0.0000    0.0000    0.0000 C   0  0  0  0  0  0  0  0  0  0  0  0
    0.0000    0.0000    0.0000 F   0  0  0  0  0  0  0  0  0  0  0  0
    0.0000    0.0000    0.0000 F   0  0  0  0  0  0  0  0  0  0  0  0
    0.0000    0.0000    0.0000 F   0  0  0  0  0  0  0  0  0  0  0  0
    0.0000    0.0000    0.0000 C   0  0  0  0  0  0  0  0  0  0  0  0
    0.0000    0.0000    0.0000 O   0  0  0  0  0  0  0  0  0  0  0  0
    0.0000    0.0000    0.0000 N   0  0  0  0  0  0  0  0  0  0  0  0
    0.0000    0.0000    0.0000 C   0  0  0  0  0  0  0  0  0  0  0  0
    0.0000    0.0000    0.0000 C   0  0  0  0  0  0  0  0  0  0  0  0
    0.0000    0.0000    0.0000 C   0  0  0  0  0  0  0  0  0  0  0  0
    0.0000    0.0000    0.0000 C   0  0  0  0  0  0  0  0  0  0  0  0
    0.0000    0.0000    0.0000 C   0  0  0  0  0  0  0  0  0  0  0  0
    0.0000    0.0000    0.0000 C   0  0  0  0  0  0  0  0  0  0  0  0
    0.0000    0.0000    0.0000 N   0  0  0  0  0  0  0  0  0  0  0  0
    0.0000    0.0000    0.0000 C   0  0  0  0  0  0  0  0  0  0  0  0
    0.0000    0.0000    0.0000 N   0  0  0  0  0  0  0  0  0  0  0  0
    0.0000    0.0000    0.0000 C   0  0  0  0  0  0  0  0  0  0  0  0
    0.0000    0.0000    0.0000 C   0  0  0  0  0  0  0  0  0  0  0  0
    0.0000    0.0000    0.0000 C   0  0  0  0  0  0  0  0  0  0  0  0
    0.0000    0.0000    0.0000 N   0  0  0  0  0  0  0  0  0  0  0  0
    0.0000    0.0000    0.0000 C   0  0  0  0  0  0  0  0  0  0  0  0
    0.0000    0.0000    0.0000 C   0  0  0  0  0  0  0  0  0  0  0  0
    0.0000    0.0000    0.0000 N   0  0  0  0  0  0  0  0  0  0  0  0
    0.0000    0.0000    0.0000 C   0  0  0  0  0  0  0  0  0  0  0  0
    0.0000    0.0000    0.0000 N   0  0  0  0  0  0  0  0  0  0  0  0
    0.0000    0.0000    0.0000 C   0  0  0  0  0  0  0  0  0  0  0  0
    0.0000    0.0000    0.0000 C   0  0  0  0  0  0  0  0  0  0  0  0
    0.0000    0.0000    0.0000 C   0  0  0  0  0  0  0  0  0  0  0  0
  1  2  1  0
  2  3  1  0
  2  4  1  0
  4  5  1  0
  5  6  1  0
  6  7  1  0
  7  8  1  0
  8  9  2  0
  9 10  1  0
 10 11  2  0
 11 12  1  0
 12 13  2  0
 13 14  1  0
 14 15  1  0
 14 16  1  0
 14 17  1  0
 11 18  1  0
 18 19  1  0
 18 20  1  0
 20 21  1  0
 21 22  2  0
 22 23  1  0
 23 24  2  0
 24 25  1  0
 24 26  1  0
 26 27  1  0
 27 28  1  0
 28 29  2  0
 29 30  1  0
 30 31  2  0
 31 32  1  0
 32 33  2  0
 32 34  1  0
 34 35  2  0
 35 36  1  0
 36 37  2  0
 37 38  1  0
 38 39  2  0
 26 40  2  0
  6 41  1  0
 41  4  1  0
 13  8  1  0
 40 21  1  0
 33 28  1  0
 39 34  1  0
M  END
>  <pIC50>  (131) 
6.85

>  <ChEMBL_ID>  (131) 
CHEMBL536983

>  <document_journal>  (131) 
Bioorg. Med. Chem. Lett.

>  <bao_endpoint>  (131) 
BAO_0000190

>  <potential_duplicate>  (131) 
False

>  <uo_units>  (131) 
UO_0000065

>  <canonical_smiles>  (131) 
Cl.CN(C)C1CN(Cc2ccc(cc2C(F)(F)F)C(O)Nc3ccc(C)c(Nc4nccc(n4)c5cncnc5)c3)C1

>  <parent_molecule_chembl_id>  (131) 
CHEMBL1188651

>  <assay_type>  (131) 
B

>  <src_id>  (131) 
1

>  <ligand_efficiency>  (131) 
{u'le': u'0.23', u'bei': u'12.14', u'sei': u'6.7', u'lle': u'2.02'}

>  <standard_flag>  (131) 
True

>  <molecule_chembl_id>  (131) 
CHEMBL536983

>  <target_organism>  (131) 
Homo sapiens

>  <standard_units>  (131) 
nM

>  <record_id>  (131) 
650998

>  <document_chembl_id>  (131) 
CHEMBL1147914

>  <bao_format>  (131) 
BAO_0000219

>  <data_validity_description>  (131) 
None

>  <activity_id>  (131) 
1954740

>  <standard_type>  (131) 
IC50

>  <target_chembl_id>  (131) 
CHEMBL1862

>  <data_validity_comment>  (131) 
None

>  <published_value>  (131) 
140

>  <document_year>  (131) 
2007

>  <target_pref_name>  (131) 
Tyrosine-protein kinase ABL

>  <assay_chembl_id>  (131) 
CHEMBL892514

>  <standard_relation>  (131) 
=

>  <assay_description>  (131) 
Inhibition of human Abl kinase expressed in Sf9 cells

>  <published_relation>  (131) 
=

>  <standard_value>  (131) 
140

>  <qudt_units>  (131) 
http://www.openphacts.org/units/Nanomolar

>  <target_tax_id>  (131) 
9606

>  <bao_label>  (131) 
cell-based format

>  <published_units>  (131) 
nM

>  <pchembl_value>  (131) 
6.85

>  <published_type>  (131) 
IC50

>  <activity_comment>  (131) 
None

$$$$

     RDKit          

 42 46  0  0  0  0  0  0  0  0999 V2000
    0.0000    0.0000    0.0000 C   0  0  0  0  0  0  0  0  0  0  0  0
    0.0000    0.0000    0.0000 N   0  0  0  0  0  0  0  0  0  0  0  0
    0.0000    0.0000    0.0000 C   0  0  0  0  0  0  0  0  0  0  0  0
    0.0000    0.0000    0.0000 C   0  0  0  0  0  0  0  0  0  0  0  0
    0.0000    0.0000    0.0000 C   0  0  0  0  0  0  0  0  0  0  0  0
    0.0000    0.0000    0.0000 C   0  0  0  0  0  0  0  0  0  0  0  0
    0.0000    0.0000    0.0000 N   0  0  0  0  0  0  0  0  0  0  0  0
    0.0000    0.0000    0.0000 C   0  0  0  0  0  0  0  0  0  0  0  0
    0.0000    0.0000    0.0000 C   0  0  0  0  0  0  0  0  0  0  0  0
    0.0000    0.0000    0.0000 C   0  0  0  0  0  0  0  0  0  0  0  0
    0.0000    0.0000    0.0000 C   0  0  0  0  0  0  0  0  0  0  0  0
    0.0000    0.0000    0.0000 C   0  0  0  0  0  0  0  0  0  0  0  0
    0.0000    0.0000    0.0000 C   0  0  0  0  0  0  0  0  0  0  0  0
    0.0000    0.0000    0.0000 C   0  0  0  0  0  0  0  0  0  0  0  0
    0.0000    0.0000    0.0000 C   0  0  0  0  0  0  0  0  0  0  0  0
    0.0000    0.0000    0.0000 F   0  0  0  0  0  0  0  0  0  0  0  0
    0.0000    0.0000    0.0000 F   0  0  0  0  0  0  0  0  0  0  0  0
    0.0000    0.0000    0.0000 F   0  0  0  0  0  0  0  0  0  0  0  0
    0.0000    0.0000    0.0000 C   0  0  0  0  0  0  0  0  0  0  0  0
    0.0000    0.0000    0.0000 O   0  0  0  0  0  0  0  0  0  0  0  0
    0.0000    0.0000    0.0000 N   0  0  0  0  0  0  0  0  0  0  0  0
    0.0000    0.0000    0.0000 C   0  0  0  0  0  0  0  0  0  0  0  0
    0.0000    0.0000    0.0000 C   0  0  0  0  0  0  0  0  0  0  0  0
    0.0000    0.0000    0.0000 C   0  0  0  0  0  0  0  0  0  0  0  0
    0.0000    0.0000    0.0000 C   0  0  0  0  0  0  0  0  0  0  0  0
    0.0000    0.0000    0.0000 C   0  0  0  0  0  0  0  0  0  0  0  0
    0.0000    0.0000    0.0000 C   0  0  0  0  0  0  0  0  0  0  0  0
    0.0000    0.0000    0.0000 N   0  0  0  0  0  0  0  0  0  0  0  0
    0.0000    0.0000    0.0000 C   0  0  0  0  0  0  0  0  0  0  0  0
    0.0000    0.0000    0.0000 N   0  0  0  0  0  0  0  0  0  0  0  0
    0.0000    0.0000    0.0000 C   0  0  0  0  0  0  0  0  0  0  0  0
    0.0000    0.0000    0.0000 C   0  0  0  0  0  0  0  0  0  0  0  0
    0.0000    0.0000    0.0000 C   0  0  0  0  0  0  0  0  0  0  0  0
    0.0000    0.0000    0.0000 N   0  0  0  0  0  0  0  0  0  0  0  0
    0.0000    0.0000    0.0000 C   0  0  0  0  0  0  0  0  0  0  0  0
    0.0000    0.0000    0.0000 C   0  0  0  0  0  0  0  0  0  0  0  0
    0.0000    0.0000    0.0000 N   0  0  0  0  0  0  0  0  0  0  0  0
    0.0000    0.0000    0.0000 C   0  0  0  0  0  0  0  0  0  0  0  0
    0.0000    0.0000    0.0000 N   0  0  0  0  0  0  0  0  0  0  0  0
    0.0000    0.0000    0.0000 C   0  0  0  0  0  0  0  0  0  0  0  0
    0.0000    0.0000    0.0000 C   0  0  0  0  0  0  0  0  0  0  0  0
    0.0000    0.0000    0.0000 C   0  0  0  0  0  0  0  0  0  0  0  0
  1  2  1  0
  2  3  1  0
  2  4  1  0
  4  5  1  0
  5  6  1  0
  6  7  1  0
  7  8  1  0
  8  9  1  0
  9 10  2  0
 10 11  1  0
 11 12  2  0
 12 13  1  0
 13 14  2  0
 14 15  1  0
 15 16  1  0
 15 17  1  0
 15 18  1  0
 12 19  1  0
 19 20  2  0
 19 21  1  0
 21 22  1  0
 22 23  2  0
 23 24  1  0
 24 25  2  0
 25 26  1  0
 25 27  1  0
 27 28  1  0
 28 29  1  0
 29 30  2  0
 30 31  1  0
 31 32  2  0
 32 33  1  0
 33 34  2  0
 33 35  1  0
 35 36  2  0
 36 37  1  0
 37 38  2  0
 38 39  1  0
 39 40  2  0
 27 41  2  0
  7 42  1  0
 42  4  1  0
 14  9  1  0
 41 22  1  0
 34 29  1  0
 40 35  1  0
M  END
>  <pIC50>  (132) 
7.92

>  <ChEMBL_ID>  (132) 
CHEMBL536073

>  <document_journal>  (132) 
Bioorg. Med. Chem. Lett.

>  <bao_endpoint>  (132) 
BAO_0000190

>  <potential_duplicate>  (132) 
False

>  <uo_units>  (132) 
UO_0000065

>  <canonical_smiles>  (132) 
Cl.CN(C)[C@@H]1CCN(Cc2ccc(cc2C(F)(F)F)C(=O)Nc3ccc(C)c(Nc4nccc(n4)c5cncnc5)c3)C1

>  <parent_molecule_chembl_id>  (132) 
CHEMBL206034

>  <assay_type>  (132) 
B

>  <src_id>  (132) 
1

>  <ligand_efficiency>  (132) 
{u'le': u'0.26', u'bei': u'13.74', u'sei': u'7.99', u'lle': u'3.29'}

>  <standard_flag>  (132) 
True

>  <molecule_chembl_id>  (132) 
CHEMBL536073

>  <target_organism>  (132) 
Homo sapiens

>  <standard_units>  (132) 
nM

>  <record_id>  (132) 
650995

>  <document_chembl_id>  (132) 
CHEMBL1147914

>  <bao_format>  (132) 
BAO_0000219

>  <data_validity_description>  (132) 
None

>  <activity_id>  (132) 
1954743

>  <standard_type>  (132) 
IC50

>  <target_chembl_id>  (132) 
CHEMBL1862

>  <data_validity_comment>  (132) 
None

>  <published_value>  (132) 
12

>  <document_year>  (132) 
2007

>  <target_pref_name>  (132) 
Tyrosine-protein kinase ABL

>  <assay_chembl_id>  (132) 
CHEMBL892514

>  <standard_relation>  (132) 
=

>  <assay_description>  (132) 
Inhibition of human Abl kinase expressed in Sf9 cells

>  <published_relation>  (132) 
=

>  <standard_value>  (132) 
12

>  <qudt_units>  (132) 
http://www.openphacts.org/units/Nanomolar

>  <target_tax_id>  (132) 
9606

>  <bao_label>  (132) 
cell-based format

>  <published_units>  (132) 
nM

>  <pchembl_value>  (132) 
7.92

>  <published_type>  (132) 
IC50

>  <activity_comment>  (132) 
None

$$$$

     RDKit          

 42 46  0  0  0  0  0  0  0  0999 V2000
    0.0000    0.0000    0.0000 C   0  0  0  0  0  0  0  0  0  0  0  0
    0.0000    0.0000    0.0000 N   0  0  0  0  0  0  0  0  0  0  0  0
    0.0000    0.0000    0.0000 C   0  0  0  0  0  0  0  0  0  0  0  0
    0.0000    0.0000    0.0000 C   0  0  0  0  0  0  0  0  0  0  0  0
    0.0000    0.0000    0.0000 C   0  0  0  0  0  0  0  0  0  0  0  0
    0.0000    0.0000    0.0000 C   0  0  0  0  0  0  0  0  0  0  0  0
    0.0000    0.0000    0.0000 N   0  0  0  0  0  0  0  0  0  0  0  0
    0.0000    0.0000    0.0000 C   0  0  0  0  0  0  0  0  0  0  0  0
    0.0000    0.0000    0.0000 C   0  0  0  0  0  0  0  0  0  0  0  0
    0.0000    0.0000    0.0000 C   0  0  0  0  0  0  0  0  0  0  0  0
    0.0000    0.0000    0.0000 C   0  0  0  0  0  0  0  0  0  0  0  0
    0.0000    0.0000    0.0000 C   0  0  0  0  0  0  0  0  0  0  0  0
    0.0000    0.0000    0.0000 C   0  0  0  0  0  0  0  0  0  0  0  0
    0.0000    0.0000    0.0000 C   0  0  0  0  0  0  0  0  0  0  0  0
    0.0000    0.0000    0.0000 C   0  0  0  0  0  0  0  0  0  0  0  0
    0.0000    0.0000    0.0000 F   0  0  0  0  0  0  0  0  0  0  0  0
    0.0000    0.0000    0.0000 F   0  0  0  0  0  0  0  0  0  0  0  0
    0.0000    0.0000    0.0000 F   0  0  0  0  0  0  0  0  0  0  0  0
    0.0000    0.0000    0.0000 C   0  0  0  0  0  0  0  0  0  0  0  0
    0.0000    0.0000    0.0000 O   0  0  0  0  0  0  0  0  0  0  0  0
    0.0000    0.0000    0.0000 N   0  0  0  0  0  0  0  0  0  0  0  0
    0.0000    0.0000    0.0000 C   0  0  0  0  0  0  0  0  0  0  0  0
    0.0000    0.0000    0.0000 C   0  0  0  0  0  0  0  0  0  0  0  0
    0.0000    0.0000    0.0000 C   0  0  0  0  0  0  0  0  0  0  0  0
    0.0000    0.0000    0.0000 C   0  0  0  0  0  0  0  0  0  0  0  0
    0.0000    0.0000    0.0000 C   0  0  0  0  0  0  0  0  0  0  0  0
    0.0000    0.0000    0.0000 C   0  0  0  0  0  0  0  0  0  0  0  0
    0.0000    0.0000    0.0000 N   0  0  0  0  0  0  0  0  0  0  0  0
    0.0000    0.0000    0.0000 C   0  0  0  0  0  0  0  0  0  0  0  0
    0.0000    0.0000    0.0000 N   0  0  0  0  0  0  0  0  0  0  0  0
    0.0000    0.0000    0.0000 C   0  0  0  0  0  0  0  0  0  0  0  0
    0.0000    0.0000    0.0000 C   0  0  0  0  0  0  0  0  0  0  0  0
    0.0000    0.0000    0.0000 C   0  0  0  0  0  0  0  0  0  0  0  0
    0.0000    0.0000    0.0000 N   0  0  0  0  0  0  0  0  0  0  0  0
    0.0000    0.0000    0.0000 C   0  0  0  0  0  0  0  0  0  0  0  0
    0.0000    0.0000    0.0000 C   0  0  0  0  0  0  0  0  0  0  0  0
    0.0000    0.0000    0.0000 N   0  0  0  0  0  0  0  0  0  0  0  0
    0.0000    0.0000    0.0000 C   0  0  0  0  0  0  0  0  0  0  0  0
    0.0000    0.0000    0.0000 N   0  0  0  0  0  0  0  0  0  0  0  0
    0.0000    0.0000    0.0000 C   0  0  0  0  0  0  0  0  0  0  0  0
    0.0000    0.0000    0.0000 C   0  0  0  0  0  0  0  0  0  0  0  0
    0.0000    0.0000    0.0000 C   0  0  0  0  0  0  0  0  0  0  0  0
  1  2  1  0
  2  3  1  0
  2  4  1  0
  4  5  1  0
  5  6  1  0
  6  7  1  0
  7  8  1  0
  8  9  1  0
  9 10  2  0
 10 11  1  0
 11 12  2  0
 12 13  1  0
 13 14  2  0
 14 15  1  0
 15 16  1  0
 15 17  1  0
 15 18  1  0
 12 19  1  0
 19 20  2  0
 19 21  1  0
 21 22  1  0
 22 23  2  0
 23 24  1  0
 24 25  2  0
 25 26  1  0
 25 27  1  0
 27 28  1  0
 28 29  1  0
 29 30  2  0
 30 31  1  0
 31 32  2  0
 32 33  1  0
 33 34  2  0
 33 35  1  0
 35 36  2  0
 36 37  1  0
 37 38  2  0
 38 39  1  0
 39 40  2  0
 27 41  2  0
  7 42  1  0
 42  4  1  0
 14  9  1  0
 41 22  1  0
 34 29  1  0
 40 35  1  0
M  END
>  <pIC50>  (133) 
7.59

>  <ChEMBL_ID>  (133) 
CHEMBL206834

>  <document_journal>  (133) 
Bioorg. Med. Chem. Lett.

>  <bao_endpoint>  (133) 
BAO_0000190

>  <potential_duplicate>  (133) 
False

>  <uo_units>  (133) 
UO_0000065

>  <canonical_smiles>  (133) 
CN(C)[C@H]1CCN(Cc2ccc(cc2C(F)(F)F)C(=O)Nc3ccc(C)c(Nc4nccc(n4)c5cncnc5)c3)C1

>  <parent_molecule_chembl_id>  (133) 
CHEMBL206834

>  <assay_type>  (133) 
B

>  <src_id>  (133) 
1

>  <ligand_efficiency>  (133) 
{u'le': u'0.25', u'bei': u'13.15', u'sei': u'7.65', u'lle': u'2.96'}

>  <standard_flag>  (133) 
True

>  <molecule_chembl_id>  (133) 
CHEMBL206834

>  <target_organism>  (133) 
Homo sapiens

>  <standard_units>  (133) 
nM

>  <record_id>  (133) 
650994

>  <document_chembl_id>  (133) 
CHEMBL1147914

>  <bao_format>  (133) 
BAO_0000219

>  <data_validity_description>  (133) 
None

>  <activity_id>  (133) 
1954744

>  <standard_type>  (133) 
IC50

>  <target_chembl_id>  (133) 
CHEMBL1862

>  <data_validity_comment>  (133) 
None

>  <published_value>  (133) 
26

>  <document_year>  (133) 
2007

>  <target_pref_name>  (133) 
Tyrosine-protein kinase ABL

>  <assay_chembl_id>  (133) 
CHEMBL892514

>  <standard_relation>  (133) 
=

>  <assay_description>  (133) 
Inhibition of human Abl kinase expressed in Sf9 cells

>  <published_relation>  (133) 
=

>  <standard_value>  (133) 
26

>  <qudt_units>  (133) 
http://www.openphacts.org/units/Nanomolar

>  <target_tax_id>  (133) 
9606

>  <bao_label>  (133) 
cell-based format

>  <published_units>  (133) 
nM

>  <pchembl_value>  (133) 
7.59

>  <published_type>  (133) 
IC50

>  <activity_comment>  (133) 
None

$$$$

     RDKit          

 41 45  0  0  0  0  0  0  0  0999 V2000
    0.0000    0.0000    0.0000 C   0  0  0  0  0  0  0  0  0  0  0  0
    0.0000    0.0000    0.0000 N   0  0  0  0  0  0  0  0  0  0  0  0
    0.0000    0.0000    0.0000 C   0  0  0  0  0  0  0  0  0  0  0  0
    0.0000    0.0000    0.0000 C   0  0  0  0  0  0  0  0  0  0  0  0
    0.0000    0.0000    0.0000 N   0  0  0  0  0  0  0  0  0  0  0  0
    0.0000    0.0000    0.0000 C   0  0  0  0  0  0  0  0  0  0  0  0
    0.0000    0.0000    0.0000 C   0  0  0  0  0  0  0  0  0  0  0  0
    0.0000    0.0000    0.0000 C   0  0  0  0  0  0  0  0  0  0  0  0
    0.0000    0.0000    0.0000 C   0  0  0  0  0  0  0  0  0  0  0  0
    0.0000    0.0000    0.0000 C   0  0  0  0  0  0  0  0  0  0  0  0
    0.0000    0.0000    0.0000 C   0  0  0  0  0  0  0  0  0  0  0  0
    0.0000    0.0000    0.0000 C   0  0  0  0  0  0  0  0  0  0  0  0
    0.0000    0.0000    0.0000 C   0  0  0  0  0  0  0  0  0  0  0  0
    0.0000    0.0000    0.0000 F   0  0  0  0  0  0  0  0  0  0  0  0
    0.0000    0.0000    0.0000 F   0  0  0  0  0  0  0  0  0  0  0  0
    0.0000    0.0000    0.0000 F   0  0  0  0  0  0  0  0  0  0  0  0
    0.0000    0.0000    0.0000 C   0  0  0  0  0  0  0  0  0  0  0  0
    0.0000    0.0000    0.0000 O   0  0  0  0  0  0  0  0  0  0  0  0
    0.0000    0.0000    0.0000 N   0  0  0  0  0  0  0  0  0  0  0  0
    0.0000    0.0000    0.0000 C   0  0  0  0  0  0  0  0  0  0  0  0
    0.0000    0.0000    0.0000 C   0  0  0  0  0  0  0  0  0  0  0  0
    0.0000    0.0000    0.0000 C   0  0  0  0  0  0  0  0  0  0  0  0
    0.0000    0.0000    0.0000 C   0  0  0  0  0  0  0  0  0  0  0  0
    0.0000    0.0000    0.0000 C   0  0  0  0  0  0  0  0  0  0  0  0
    0.0000    0.0000    0.0000 C   0  0  0  0  0  0  0  0  0  0  0  0
    0.0000    0.0000    0.0000 N   0  0  0  0  0  0  0  0  0  0  0  0
    0.0000    0.0000    0.0000 C   0  0  0  0  0  0  0  0  0  0  0  0
    0.0000    0.0000    0.0000 N   0  0  0  0  0  0  0  0  0  0  0  0
    0.0000    0.0000    0.0000 C   0  0  0  0  0  0  0  0  0  0  0  0
    0.0000    0.0000    0.0000 C   0  0  0  0  0  0  0  0  0  0  0  0
    0.0000    0.0000    0.0000 C   0  0  0  0  0  0  0  0  0  0  0  0
    0.0000    0.0000    0.0000 N   0  0  0  0  0  0  0  0  0  0  0  0
    0.0000    0.0000    0.0000 C   0  0  0  0  0  0  0  0  0  0  0  0
    0.0000    0.0000    0.0000 C   0  0  0  0  0  0  0  0  0  0  0  0
    0.0000    0.0000    0.0000 N   0  0  0  0  0  0  0  0  0  0  0  0
    0.0000    0.0000    0.0000 C   0  0  0  0  0  0  0  0  0  0  0  0
    0.0000    0.0000    0.0000 N   0  0  0  0  0  0  0  0  0  0  0  0
    0.0000    0.0000    0.0000 C   0  0  0  0  0  0  0  0  0  0  0  0
    0.0000    0.0000    0.0000 C   0  0  0  0  0  0  0  0  0  0  0  0
    0.0000    0.0000    0.0000 C   0  0  0  0  0  0  0  0  0  0  0  0
    0.0000    0.0000    0.0000 C   0  0  0  0  0  0  0  0  0  0  0  0
  1  2  1  0
  2  3  1  0
  3  4  1  0
  4  5  1  0
  5  6  1  0
  6  7  1  0
  7  8  2  0
  8  9  1  0
  9 10  2  0
 10 11  1  0
 11 12  2  0
 12 13  1  0
 13 14  1  0
 13 15  1  0
 13 16  1  0
 10 17  1  0
 17 18  2  0
 17 19  1  0
 19 20  1  0
 20 21  2  0
 21 22  1  0
 22 23  2  0
 23 24  1  0
 23 25  1  0
 25 26  1  0
 26 27  1  0
 27 28  2  0
 28 29  1  0
 29 30  2  0
 30 31  1  0
 31 32  2  0
 31 33  1  0
 33 34  2  0
 34 35  1  0
 35 36  2  0
 36 37  1  0
 37 38  2  0
 25 39  2  0
  5 40  1  0
 40 41  1  0
 41  2  1  0
 12  7  1  0
 39 20  1  0
 32 27  1  0
 38 33  1  0
M  END
>  <pIC50>  (134) 
8.06

>  <ChEMBL_ID>  (134) 
CHEMBL205723

>  <document_journal>  (134) 
Bioorg. Med. Chem. Lett.

>  <bao_endpoint>  (134) 
BAO_0000190

>  <potential_duplicate>  (134) 
False

>  <uo_units>  (134) 
UO_0000065

>  <canonical_smiles>  (134) 
CN1CCN(Cc2ccc(cc2C(F)(F)F)C(=O)Nc3ccc(C)c(Nc4nccc(n4)c5cncnc5)c3)CC1

>  <parent_molecule_chembl_id>  (134) 
CHEMBL205723

>  <assay_type>  (134) 
B

>  <src_id>  (134) 
1

>  <ligand_efficiency>  (134) 
{u'le': u'0.27', u'bei': u'14.32', u'sei': u'8.12', u'lle': u'3.53'}

>  <standard_flag>  (134) 
True

>  <molecule_chembl_id>  (134) 
CHEMBL205723

>  <target_organism>  (134) 
Homo sapiens

>  <standard_units>  (134) 
nM

>  <record_id>  (134) 
650993

>  <document_chembl_id>  (134) 
CHEMBL1147914

>  <bao_format>  (134) 
BAO_0000219

>  <data_validity_description>  (134) 
None

>  <activity_id>  (134) 
1954745

>  <standard_type>  (134) 
IC50

>  <target_chembl_id>  (134) 
CHEMBL1862

>  <data_validity_comment>  (134) 
None

>  <published_value>  (134) 
8.8

>  <document_year>  (134) 
2007

>  <target_pref_name>  (134) 
Tyrosine-protein kinase ABL

>  <assay_chembl_id>  (134) 
CHEMBL892514

>  <standard_relation>  (134) 
=

>  <assay_description>  (134) 
Inhibition of human Abl kinase expressed in Sf9 cells

>  <published_relation>  (134) 
=

>  <standard_value>  (134) 
8.8

>  <qudt_units>  (134) 
http://www.openphacts.org/units/Nanomolar

>  <target_tax_id>  (134) 
9606

>  <bao_label>  (134) 
cell-based format

>  <published_units>  (134) 
nM

>  <pchembl_value>  (134) 
8.06

>  <published_type>  (134) 
IC50

>  <activity_comment>  (134) 
None

$$$$

     RDKit          

 41 45  0  0  0  0  0  0  0  0999 V2000
    0.0000    0.0000    0.0000 C   0  0  0  0  0  0  0  0  0  0  0  0
    0.0000    0.0000    0.0000 N   0  0  0  0  0  0  0  0  0  0  0  0
    0.0000    0.0000    0.0000 C   0  0  0  0  0  0  0  0  0  0  0  0
    0.0000    0.0000    0.0000 C   0  0  0  0  0  0  0  0  0  0  0  0
    0.0000    0.0000    0.0000 N   0  0  0  0  0  0  0  0  0  0  0  0
    0.0000    0.0000    0.0000 C   0  0  0  0  0  0  0  0  0  0  0  0
    0.0000    0.0000    0.0000 C   0  0  0  0  0  0  0  0  0  0  0  0
    0.0000    0.0000    0.0000 C   0  0  0  0  0  0  0  0  0  0  0  0
    0.0000    0.0000    0.0000 C   0  0  0  0  0  0  0  0  0  0  0  0
    0.0000    0.0000    0.0000 C   0  0  0  0  0  0  0  0  0  0  0  0
    0.0000    0.0000    0.0000 C   0  0  0  0  0  0  0  0  0  0  0  0
    0.0000    0.0000    0.0000 C   0  0  0  0  0  0  0  0  0  0  0  0
    0.0000    0.0000    0.0000 C   0  0  0  0  0  0  0  0  0  0  0  0
    0.0000    0.0000    0.0000 F   0  0  0  0  0  0  0  0  0  0  0  0
    0.0000    0.0000    0.0000 F   0  0  0  0  0  0  0  0  0  0  0  0
    0.0000    0.0000    0.0000 F   0  0  0  0  0  0  0  0  0  0  0  0
    0.0000    0.0000    0.0000 C   0  0  0  0  0  0  0  0  0  0  0  0
    0.0000    0.0000    0.0000 O   0  0  0  0  0  0  0  0  0  0  0  0
    0.0000    0.0000    0.0000 N   0  0  0  0  0  0  0  0  0  0  0  0
    0.0000    0.0000    0.0000 C   0  0  0  0  0  0  0  0  0  0  0  0
    0.0000    0.0000    0.0000 C   0  0  0  0  0  0  0  0  0  0  0  0
    0.0000    0.0000    0.0000 C   0  0  0  0  0  0  0  0  0  0  0  0
    0.0000    0.0000    0.0000 C   0  0  0  0  0  0  0  0  0  0  0  0
    0.0000    0.0000    0.0000 C   0  0  0  0  0  0  0  0  0  0  0  0
    0.0000    0.0000    0.0000 C   0  0  0  0  0  0  0  0  0  0  0  0
    0.0000    0.0000    0.0000 N   0  0  0  0  0  0  0  0  0  0  0  0
    0.0000    0.0000    0.0000 C   0  0  0  0  0  0  0  0  0  0  0  0
    0.0000    0.0000    0.0000 N   0  0  0  0  0  0  0  0  0  0  0  0
    0.0000    0.0000    0.0000 C   0  0  0  0  0  0  0  0  0  0  0  0
    0.0000    0.0000    0.0000 C   0  0  0  0  0  0  0  0  0  0  0  0
    0.0000    0.0000    0.0000 C   0  0  0  0  0  0  0  0  0  0  0  0
    0.0000    0.0000    0.0000 N   0  0  0  0  0  0  0  0  0  0  0  0
    0.0000    0.0000    0.0000 C   0  0  0  0  0  0  0  0  0  0  0  0
    0.0000    0.0000    0.0000 C   0  0  0  0  0  0  0  0  0  0  0  0
    0.0000    0.0000    0.0000 C   0  0  0  0  0  0  0  0  0  0  0  0
    0.0000    0.0000    0.0000 C   0  0  0  0  0  0  0  0  0  0  0  0
    0.0000    0.0000    0.0000 N   0  0  0  0  0  0  0  0  0  0  0  0
    0.0000    0.0000    0.0000 C   0  0  0  0  0  0  0  0  0  0  0  0
    0.0000    0.0000    0.0000 C   0  0  0  0  0  0  0  0  0  0  0  0
    0.0000    0.0000    0.0000 C   0  0  0  0  0  0  0  0  0  0  0  0
    0.0000    0.0000    0.0000 C   0  0  0  0  0  0  0  0  0  0  0  0
  1  2  1  0
  2  3  1  0
  3  4  1  0
  4  5  1  0
  5  6  1  0
  6  7  1  0
  7  8  2  0
  8  9  1  0
  9 10  2  0
 10 11  1  0
 11 12  2  0
 12 13  1  0
 13 14  1  0
 13 15  1  0
 13 16  1  0
 10 17  1  0
 17 18  2  0
 17 19  1  0
 19 20  1  0
 20 21  2  0
 21 22  1  0
 22 23  2  0
 23 24  1  0
 23 25  1  0
 25 26  1  0
 26 27  1  0
 27 28  2  0
 28 29  1  0
 29 30  2  0
 30 31  1  0
 31 32  2  0
 31 33  1  0
 33 34  2  0
 34 35  1  0
 35 36  2  0
 36 37  1  0
 37 38  2  0
 25 39  2  0
  5 40  1  0
 40 41  1  0
 41  2  1  0
 12  7  1  0
 39 20  1  0
 32 27  1  0
 38 33  1  0
M  END
>  <pIC50>  (135) 
8.29

>  <ChEMBL_ID>  (135) 
CHEMBL203343

>  <document_journal>  (135) 
Bioorg. Med. Chem. Lett.

>  <bao_endpoint>  (135) 
BAO_0000190

>  <potential_duplicate>  (135) 
False

>  <uo_units>  (135) 
UO_0000065

>  <canonical_smiles>  (135) 
CN1CCN(Cc2ccc(cc2C(F)(F)F)C(=O)Nc3ccc(C)c(Nc4nccc(n4)c5cccnc5)c3)CC1

>  <parent_molecule_chembl_id>  (135) 
CHEMBL203343

>  <assay_type>  (135) 
B

>  <src_id>  (135) 
1

>  <ligand_efficiency>  (135) 
{u'le': u'0.28', u'bei': u'14.77', u'sei': u'9.61', u'lle': u'3.13'}

>  <standard_flag>  (135) 
True

>  <molecule_chembl_id>  (135) 
CHEMBL203343

>  <target_organism>  (135) 
Homo sapiens

>  <standard_units>  (135) 
nM

>  <record_id>  (135) 
650992

>  <document_chembl_id>  (135) 
CHEMBL1147914

>  <bao_format>  (135) 
BAO_0000219

>  <data_validity_description>  (135) 
None

>  <activity_id>  (135) 
1954746

>  <standard_type>  (135) 
IC50

>  <target_chembl_id>  (135) 
CHEMBL1862

>  <data_validity_comment>  (135) 
None

>  <published_value>  (135) 
5.1

>  <document_year>  (135) 
2007

>  <target_pref_name>  (135) 
Tyrosine-protein kinase ABL

>  <assay_chembl_id>  (135) 
CHEMBL892514

>  <standard_relation>  (135) 
=

>  <assay_description>  (135) 
Inhibition of human Abl kinase expressed in Sf9 cells

>  <published_relation>  (135) 
=

>  <standard_value>  (135) 
5.1

>  <qudt_units>  (135) 
http://www.openphacts.org/units/Nanomolar

>  <target_tax_id>  (135) 
9606

>  <bao_label>  (135) 
cell-based format

>  <published_units>  (135) 
nM

>  <pchembl_value>  (135) 
8.29

>  <published_type>  (135) 
IC50

>  <activity_comment>  (135) 
None

$$$$

     RDKit          

 38 42  0  0  0  0  0  0  0  0999 V2000
    0.0000    0.0000    0.0000 C   0  0  0  0  0  0  0  0  0  0  0  0
    0.0000    0.0000    0.0000 N   0  0  0  0  0  0  0  0  0  0  0  0
    0.0000    0.0000    0.0000 C   0  0  0  0  0  0  0  0  0  0  0  0
    0.0000    0.0000    0.0000 C   0  0  0  0  0  0  0  0  0  0  0  0
    0.0000    0.0000    0.0000 N   0  0  0  0  0  0  0  0  0  0  0  0
    0.0000    0.0000    0.0000 C   0  0  0  0  0  0  0  0  0  0  0  0
    0.0000    0.0000    0.0000 C   0  0  0  0  0  0  0  0  0  0  0  0
    0.0000    0.0000    0.0000 C   0  0  0  0  0  0  0  0  0  0  0  0
    0.0000    0.0000    0.0000 C   0  0  0  0  0  0  0  0  0  0  0  0
    0.0000    0.0000    0.0000 C   0  0  0  0  0  0  0  0  0  0  0  0
    0.0000    0.0000    0.0000 C   0  0  0  0  0  0  0  0  0  0  0  0
    0.0000    0.0000    0.0000 C   0  0  0  0  0  0  0  0  0  0  0  0
    0.0000    0.0000    0.0000 Br  0  0  0  0  0  0  0  0  0  0  0  0
    0.0000    0.0000    0.0000 C   0  0  0  0  0  0  0  0  0  0  0  0
    0.0000    0.0000    0.0000 O   0  0  0  0  0  0  0  0  0  0  0  0
    0.0000    0.0000    0.0000 N   0  0  0  0  0  0  0  0  0  0  0  0
    0.0000    0.0000    0.0000 C   0  0  0  0  0  0  0  0  0  0  0  0
    0.0000    0.0000    0.0000 C   0  0  0  0  0  0  0  0  0  0  0  0
    0.0000    0.0000    0.0000 C   0  0  0  0  0  0  0  0  0  0  0  0
    0.0000    0.0000    0.0000 C   0  0  0  0  0  0  0  0  0  0  0  0
    0.0000    0.0000    0.0000 C   0  0  0  0  0  0  0  0  0  0  0  0
    0.0000    0.0000    0.0000 C   0  0  0  0  0  0  0  0  0  0  0  0
    0.0000    0.0000    0.0000 N   0  0  0  0  0  0  0  0  0  0  0  0
    0.0000    0.0000    0.0000 C   0  0  0  0  0  0  0  0  0  0  0  0
    0.0000    0.0000    0.0000 N   0  0  0  0  0  0  0  0  0  0  0  0
    0.0000    0.0000    0.0000 C   0  0  0  0  0  0  0  0  0  0  0  0
    0.0000    0.0000    0.0000 C   0  0  0  0  0  0  0  0  0  0  0  0
    0.0000    0.0000    0.0000 C   0  0  0  0  0  0  0  0  0  0  0  0
    0.0000    0.0000    0.0000 N   0  0  0  0  0  0  0  0  0  0  0  0
    0.0000    0.0000    0.0000 C   0  0  0  0  0  0  0  0  0  0  0  0
    0.0000    0.0000    0.0000 C   0  0  0  0  0  0  0  0  0  0  0  0
    0.0000    0.0000    0.0000 C   0  0  0  0  0  0  0  0  0  0  0  0
    0.0000    0.0000    0.0000 C   0  0  0  0  0  0  0  0  0  0  0  0
    0.0000    0.0000    0.0000 N   0  0  0  0  0  0  0  0  0  0  0  0
    0.0000    0.0000    0.0000 C   0  0  0  0  0  0  0  0  0  0  0  0
    0.0000    0.0000    0.0000 C   0  0  0  0  0  0  0  0  0  0  0  0
    0.0000    0.0000    0.0000 C   0  0  0  0  0  0  0  0  0  0  0  0
    0.0000    0.0000    0.0000 C   0  0  0  0  0  0  0  0  0  0  0  0
  1  2  1  0
  2  3  1  0
  3  4  1  0
  4  5  1  0
  5  6  1  0
  6  7  1  0
  7  8  2  0
  8  9  1  0
  9 10  2  0
 10 11  1  0
 11 12  2  0
 12 13  1  0
 10 14  1  0
 14 15  2  0
 14 16  1  0
 16 17  1  0
 17 18  2  0
 18 19  1  0
 19 20  2  0
 20 21  1  0
 20 22  1  0
 22 23  1  0
 23 24  1  0
 24 25  2  0
 25 26  1  0
 26 27  2  0
 27 28  1  0
 28 29  2  0
 28 30  1  0
 30 31  2  0
 31 32  1  0
 32 33  2  0
 33 34  1  0
 34 35  2  0
 22 36  2  0
  5 37  1  0
 37 38  1  0
 38  2  1  0
 12  7  1  0
 36 17  1  0
 29 24  1  0
 35 30  1  0
M  END
>  <pIC50>  (136) 
7.92

>  <ChEMBL_ID>  (136) 
CHEMBL383010

>  <document_journal>  (136) 
Bioorg. Med. Chem. Lett.

>  <bao_endpoint>  (136) 
BAO_0000190

>  <potential_duplicate>  (136) 
False

>  <uo_units>  (136) 
UO_0000065

>  <canonical_smiles>  (136) 
CN1CCN(Cc2ccc(cc2Br)C(=O)Nc3ccc(C)c(Nc4nccc(n4)c5cccnc5)c3)CC1

>  <parent_molecule_chembl_id>  (136) 
CHEMBL383010

>  <assay_type>  (136) 
B

>  <src_id>  (136) 
1

>  <ligand_efficiency>  (136) 
{u'le': u'0.28', u'bei': u'13.84', u'sei': u'9.18', u'lle': u'2.95'}

>  <standard_flag>  (136) 
True

>  <molecule_chembl_id>  (136) 
CHEMBL383010

>  <target_organism>  (136) 
Homo sapiens

>  <standard_units>  (136) 
nM

>  <record_id>  (136) 
650990

>  <document_chembl_id>  (136) 
CHEMBL1147914

>  <bao_format>  (136) 
BAO_0000219

>  <data_validity_description>  (136) 
None

>  <activity_id>  (136) 
1954748

>  <standard_type>  (136) 
IC50

>  <target_chembl_id>  (136) 
CHEMBL1862

>  <data_validity_comment>  (136) 
None

>  <published_value>  (136) 
12

>  <document_year>  (136) 
2007

>  <target_pref_name>  (136) 
Tyrosine-protein kinase ABL

>  <assay_chembl_id>  (136) 
CHEMBL892514

>  <standard_relation>  (136) 
=

>  <assay_description>  (136) 
Inhibition of human Abl kinase expressed in Sf9 cells

>  <published_relation>  (136) 
=

>  <standard_value>  (136) 
12

>  <qudt_units>  (136) 
http://www.openphacts.org/units/Nanomolar

>  <target_tax_id>  (136) 
9606

>  <bao_label>  (136) 
cell-based format

>  <published_units>  (136) 
nM

>  <pchembl_value>  (136) 
7.92

>  <published_type>  (136) 
IC50

>  <activity_comment>  (136) 
None

$$$$

     RDKit          

 38 42  0  0  0  0  0  0  0  0999 V2000
    0.0000    0.0000    0.0000 C   0  0  0  0  0  0  0  0  0  0  0  0
    0.0000    0.0000    0.0000 N   0  0  0  0  0  0  0  0  0  0  0  0
    0.0000    0.0000    0.0000 C   0  0  0  0  0  0  0  0  0  0  0  0
    0.0000    0.0000    0.0000 C   0  0  0  0  0  0  0  0  0  0  0  0
    0.0000    0.0000    0.0000 N   0  0  0  0  0  0  0  0  0  0  0  0
    0.0000    0.0000    0.0000 C   0  0  0  0  0  0  0  0  0  0  0  0
    0.0000    0.0000    0.0000 C   0  0  0  0  0  0  0  0  0  0  0  0
    0.0000    0.0000    0.0000 C   0  0  0  0  0  0  0  0  0  0  0  0
    0.0000    0.0000    0.0000 C   0  0  0  0  0  0  0  0  0  0  0  0
    0.0000    0.0000    0.0000 C   0  0  0  0  0  0  0  0  0  0  0  0
    0.0000    0.0000    0.0000 C   0  0  0  0  0  0  0  0  0  0  0  0
    0.0000    0.0000    0.0000 C   0  0  0  0  0  0  0  0  0  0  0  0
    0.0000    0.0000    0.0000 F   0  0  0  0  0  0  0  0  0  0  0  0
    0.0000    0.0000    0.0000 C   0  0  0  0  0  0  0  0  0  0  0  0
    0.0000    0.0000    0.0000 O   0  0  0  0  0  0  0  0  0  0  0  0
    0.0000    0.0000    0.0000 N   0  0  0  0  0  0  0  0  0  0  0  0
    0.0000    0.0000    0.0000 C   0  0  0  0  0  0  0  0  0  0  0  0
    0.0000    0.0000    0.0000 C   0  0  0  0  0  0  0  0  0  0  0  0
    0.0000    0.0000    0.0000 C   0  0  0  0  0  0  0  0  0  0  0  0
    0.0000    0.0000    0.0000 C   0  0  0  0  0  0  0  0  0  0  0  0
    0.0000    0.0000    0.0000 C   0  0  0  0  0  0  0  0  0  0  0  0
    0.0000    0.0000    0.0000 C   0  0  0  0  0  0  0  0  0  0  0  0
    0.0000    0.0000    0.0000 N   0  0  0  0  0  0  0  0  0  0  0  0
    0.0000    0.0000    0.0000 C   0  0  0  0  0  0  0  0  0  0  0  0
    0.0000    0.0000    0.0000 N   0  0  0  0  0  0  0  0  0  0  0  0
    0.0000    0.0000    0.0000 C   0  0  0  0  0  0  0  0  0  0  0  0
    0.0000    0.0000    0.0000 C   0  0  0  0  0  0  0  0  0  0  0  0
    0.0000    0.0000    0.0000 C   0  0  0  0  0  0  0  0  0  0  0  0
    0.0000    0.0000    0.0000 N   0  0  0  0  0  0  0  0  0  0  0  0
    0.0000    0.0000    0.0000 C   0  0  0  0  0  0  0  0  0  0  0  0
    0.0000    0.0000    0.0000 C   0  0  0  0  0  0  0  0  0  0  0  0
    0.0000    0.0000    0.0000 C   0  0  0  0  0  0  0  0  0  0  0  0
    0.0000    0.0000    0.0000 C   0  0  0  0  0  0  0  0  0  0  0  0
    0.0000    0.0000    0.0000 N   0  0  0  0  0  0  0  0  0  0  0  0
    0.0000    0.0000    0.0000 C   0  0  0  0  0  0  0  0  0  0  0  0
    0.0000    0.0000    0.0000 C   0  0  0  0  0  0  0  0  0  0  0  0
    0.0000    0.0000    0.0000 C   0  0  0  0  0  0  0  0  0  0  0  0
    0.0000    0.0000    0.0000 C   0  0  0  0  0  0  0  0  0  0  0  0
  1  2  1  0
  2  3  1  0
  3  4  1  0
  4  5  1  0
  5  6  1  0
  6  7  1  0
  7  8  2  0
  8  9  1  0
  9 10  2  0
 10 11  1  0
 11 12  2  0
 12 13  1  0
 10 14  1  0
 14 15  2  0
 14 16  1  0
 16 17  1  0
 17 18  2  0
 18 19  1  0
 19 20  2  0
 20 21  1  0
 20 22  1  0
 22 23  1  0
 23 24  1  0
 24 25  2  0
 25 26  1  0
 26 27  2  0
 27 28  1  0
 28 29  2  0
 28 30  1  0
 30 31  2  0
 31 32  1  0
 32 33  2  0
 33 34  1  0
 34 35  2  0
 22 36  2  0
  5 37  1  0
 37 38  1  0
 38  2  1  0
 12  7  1  0
 36 17  1  0
 29 24  1  0
 35 30  1  0
M  END
>  <pIC50>  (137) 
6.92

>  <ChEMBL_ID>  (137) 
CHEMBL205409

>  <document_journal>  (137) 
Bioorg. Med. Chem. Lett.

>  <bao_endpoint>  (137) 
BAO_0000190

>  <potential_duplicate>  (137) 
False

>  <uo_units>  (137) 
UO_0000065

>  <canonical_smiles>  (137) 
CN1CCN(Cc2ccc(cc2F)C(=O)Nc3ccc(C)c(Nc4nccc(n4)c5cccnc5)c3)CC1

>  <parent_molecule_chembl_id>  (137) 
CHEMBL205409

>  <assay_type>  (137) 
B

>  <src_id>  (137) 
1

>  <ligand_efficiency>  (137) 
{u'le': u'0.25', u'bei': u'13.53', u'sei': u'8.02', u'lle': u'2.49'}

>  <standard_flag>  (137) 
True

>  <molecule_chembl_id>  (137) 
CHEMBL205409

>  <target_organism>  (137) 
Homo sapiens

>  <standard_units>  (137) 
nM

>  <record_id>  (137) 
650988

>  <document_chembl_id>  (137) 
CHEMBL1147914

>  <bao_format>  (137) 
BAO_0000219

>  <data_validity_description>  (137) 
None

>  <activity_id>  (137) 
1954750

>  <standard_type>  (137) 
IC50

>  <target_chembl_id>  (137) 
CHEMBL1862

>  <data_validity_comment>  (137) 
None

>  <published_value>  (137) 
120

>  <document_year>  (137) 
2007

>  <target_pref_name>  (137) 
Tyrosine-protein kinase ABL

>  <assay_chembl_id>  (137) 
CHEMBL892514

>  <standard_relation>  (137) 
=

>  <assay_description>  (137) 
Inhibition of human Abl kinase expressed in Sf9 cells

>  <published_relation>  (137) 
=

>  <standard_value>  (137) 
120

>  <qudt_units>  (137) 
http://www.openphacts.org/units/Nanomolar

>  <target_tax_id>  (137) 
9606

>  <bao_label>  (137) 
cell-based format

>  <published_units>  (137) 
nM

>  <pchembl_value>  (137) 
6.92

>  <published_type>  (137) 
IC50

>  <activity_comment>  (137) 
None

$$$$

     RDKit          

 43 47  0  0  0  0  0  0  0  0999 V2000
    0.0000    0.0000    0.0000 C   0  0  0  0  0  0  0  0  0  0  0  0
    0.0000    0.0000    0.0000 N   0  0  0  0  0  0  0  0  0  0  0  0
    0.0000    0.0000    0.0000 C   0  0  0  0  0  0  0  0  0  0  0  0
    0.0000    0.0000    0.0000 C   0  0  0  0  0  0  0  0  0  0  0  0
    0.0000    0.0000    0.0000 C   0  0  0  0  0  0  0  0  0  0  0  0
    0.0000    0.0000    0.0000 C   0  0  0  0  0  0  0  0  0  0  0  0
    0.0000    0.0000    0.0000 C   0  0  0  0  0  0  0  0  0  0  0  0
    0.0000    0.0000    0.0000 N   0  0  0  0  0  0  0  0  0  0  0  0
    0.0000    0.0000    0.0000 C   0  0  0  0  0  0  0  0  0  0  0  0
    0.0000    0.0000    0.0000 C   0  0  0  0  0  0  0  0  0  0  0  0
    0.0000    0.0000    0.0000 C   0  0  0  0  0  0  0  0  0  0  0  0
    0.0000    0.0000    0.0000 C   0  0  0  0  0  0  0  0  0  0  0  0
    0.0000    0.0000    0.0000 C   0  0  0  0  0  0  0  0  0  0  0  0
    0.0000    0.0000    0.0000 C   0  0  0  0  0  0  0  0  0  0  0  0
    0.0000    0.0000    0.0000 C   0  0  0  0  0  0  0  0  0  0  0  0
    0.0000    0.0000    0.0000 C   0  0  0  0  0  0  0  0  0  0  0  0
    0.0000    0.0000    0.0000 F   0  0  0  0  0  0  0  0  0  0  0  0
    0.0000    0.0000    0.0000 F   0  0  0  0  0  0  0  0  0  0  0  0
    0.0000    0.0000    0.0000 F   0  0  0  0  0  0  0  0  0  0  0  0
    0.0000    0.0000    0.0000 C   0  0  0  0  0  0  0  0  0  0  0  0
    0.0000    0.0000    0.0000 O   0  0  0  0  0  0  0  0  0  0  0  0
    0.0000    0.0000    0.0000 N   0  0  0  0  0  0  0  0  0  0  0  0
    0.0000    0.0000    0.0000 C   0  0  0  0  0  0  0  0  0  0  0  0
    0.0000    0.0000    0.0000 C   0  0  0  0  0  0  0  0  0  0  0  0
    0.0000    0.0000    0.0000 C   0  0  0  0  0  0  0  0  0  0  0  0
    0.0000    0.0000    0.0000 C   0  0  0  0  0  0  0  0  0  0  0  0
    0.0000    0.0000    0.0000 C   0  0  0  0  0  0  0  0  0  0  0  0
    0.0000    0.0000    0.0000 C   0  0  0  0  0  0  0  0  0  0  0  0
    0.0000    0.0000    0.0000 N   0  0  0  0  0  0  0  0  0  0  0  0
    0.0000    0.0000    0.0000 C   0  0  0  0  0  0  0  0  0  0  0  0
    0.0000    0.0000    0.0000 N   0  0  0  0  0  0  0  0  0  0  0  0
    0.0000    0.0000    0.0000 C   0  0  0  0  0  0  0  0  0  0  0  0
    0.0000    0.0000    0.0000 C   0  0  0  0  0  0  0  0  0  0  0  0
    0.0000    0.0000    0.0000 C   0  0  0  0  0  0  0  0  0  0  0  0
    0.0000    0.0000    0.0000 N   0  0  0  0  0  0  0  0  0  0  0  0
    0.0000    0.0000    0.0000 C   0  0  0  0  0  0  0  0  0  0  0  0
    0.0000    0.0000    0.0000 C   0  0  0  0  0  0  0  0  0  0  0  0
    0.0000    0.0000    0.0000 N   0  0  0  0  0  0  0  0  0  0  0  0
    0.0000    0.0000    0.0000 C   0  0  0  0  0  0  0  0  0  0  0  0
    0.0000    0.0000    0.0000 N   0  0  0  0  0  0  0  0  0  0  0  0
    0.0000    0.0000    0.0000 C   0  0  0  0  0  0  0  0  0  0  0  0
    0.0000    0.0000    0.0000 C   0  0  0  0  0  0  0  0  0  0  0  0
    0.0000    0.0000    0.0000 C   0  0  0  0  0  0  0  0  0  0  0  0
  1  2  1  0
  2  3  1  0
  2  4  1  0
  4  5  1  0
  5  6  1  0
  6  7  1  0
  7  8  1  0
  8  9  1  0
  9 10  1  0
 10 11  2  0
 11 12  1  0
 12 13  2  0
 13 14  1  0
 14 15  2  0
 15 16  1  0
 16 17  1  0
 16 18  1  0
 16 19  1  0
 13 20  1  0
 20 21  1  0
 20 22  1  0
 22 23  1  0
 23 24  2  0
 24 25  1  0
 25 26  2  0
 26 27  1  0
 26 28  1  0
 28 29  1  0
 29 30  1  0
 30 31  2  0
 31 32  1  0
 32 33  2  0
 33 34  1  0
 34 35  2  0
 34 36  1  0
 36 37  2  0
 37 38  1  0
 38 39  2  0
 39 40  1  0
 40 41  2  0
 28 42  2  0
  8 43  1  0
 43  5  1  0
 15 10  1  0
 42 23  1  0
 35 30  1  0
 41 36  1  0
M  END
>  <pIC50>  (138) 
7.5

>  <ChEMBL_ID>  (138) 
CHEMBL538337

>  <document_journal>  (138) 
Bioorg. Med. Chem. Lett.

>  <bao_endpoint>  (138) 
BAO_0000190

>  <potential_duplicate>  (138) 
False

>  <uo_units>  (138) 
UO_0000065

>  <canonical_smiles>  (138) 
Cl.CN(C)C[C@@H]1CCN(Cc2ccc(cc2C(F)(F)F)C(O)Nc3ccc(C)c(Nc4nccc(n4)c5cncnc5)c3)C1

>  <parent_molecule_chembl_id>  (138) 
CHEMBL1189267

>  <assay_type>  (138) 
B

>  <src_id>  (138) 
1

>  <ligand_efficiency>  (138) 
{u'le': u'0.24', u'bei': u'12.65', u'sei': u'7.32', u'lle': u'2.41'}

>  <standard_flag>  (138) 
True

>  <molecule_chembl_id>  (138) 
CHEMBL538337

>  <target_organism>  (138) 
Homo sapiens

>  <standard_units>  (138) 
nM

>  <record_id>  (138) 
650997

>  <document_chembl_id>  (138) 
CHEMBL1147914

>  <bao_format>  (138) 
BAO_0000219

>  <data_validity_description>  (138) 
None

>  <activity_id>  (138) 
1954866

>  <standard_type>  (138) 
IC50

>  <target_chembl_id>  (138) 
CHEMBL1862

>  <data_validity_comment>  (138) 
None

>  <published_value>  (138) 
32

>  <document_year>  (138) 
2007

>  <target_pref_name>  (138) 
Tyrosine-protein kinase ABL

>  <assay_chembl_id>  (138) 
CHEMBL892514

>  <standard_relation>  (138) 
=

>  <assay_description>  (138) 
Inhibition of human Abl kinase expressed in Sf9 cells

>  <published_relation>  (138) 
=

>  <standard_value>  (138) 
32

>  <qudt_units>  (138) 
http://www.openphacts.org/units/Nanomolar

>  <target_tax_id>  (138) 
9606

>  <bao_label>  (138) 
cell-based format

>  <published_units>  (138) 
nM

>  <pchembl_value>  (138) 
7.5

>  <published_type>  (138) 
IC50

>  <activity_comment>  (138) 
None

$$$$

     RDKit          

 31 34  0  0  0  0  0  0  0  0999 V2000
    0.0000    0.0000    0.0000 C   0  0  0  0  0  0  0  0  0  0  0  0
    0.0000    0.0000    0.0000 C   0  0  0  0  0  0  0  0  0  0  0  0
    0.0000    0.0000    0.0000 C   0  0  0  0  0  0  0  0  0  0  0  0
    0.0000    0.0000    0.0000 N   0  0  0  0  0  0  0  0  0  0  0  0
    0.0000    0.0000    0.0000 C   0  0  0  0  0  0  0  0  0  0  0  0
    0.0000    0.0000    0.0000 C   0  0  0  0  0  0  0  0  0  0  0  0
    0.0000    0.0000    0.0000 C   0  0  0  0  0  0  0  0  0  0  0  0
    0.0000    0.0000    0.0000 C   0  0  0  0  0  0  0  0  0  0  0  0
    0.0000    0.0000    0.0000 C   0  0  0  0  0  0  0  0  0  0  0  0
    0.0000    0.0000    0.0000 N   0  0  0  0  0  0  0  0  0  0  0  0
    0.0000    0.0000    0.0000 C   0  0  0  0  0  0  0  0  0  0  0  0
    0.0000    0.0000    0.0000 C   0  0  0  0  0  0  0  0  0  0  0  0
    0.0000    0.0000    0.0000 C   0  0  0  0  0  0  0  0  0  0  0  0
    0.0000    0.0000    0.0000 N   0  0  0  0  0  0  0  0  0  0  0  0
    0.0000    0.0000    0.0000 N   0  0  0  0  0  0  0  0  0  0  0  0
    0.0000    0.0000    0.0000 C   0  0  0  0  0  0  0  0  0  0  0  0
    0.0000    0.0000    0.0000 C   0  0  0  0  0  0  0  0  0  0  0  0
    0.0000    0.0000    0.0000 C   0  0  0  0  0  0  0  0  0  0  0  0
    0.0000    0.0000    0.0000 C   0  0  0  0  0  0  0  0  0  0  0  0
    0.0000    0.0000    0.0000 C   0  0  0  0  0  0  0  0  0  0  0  0
    0.0000    0.0000    0.0000 C   0  0  0  0  0  0  0  0  0  0  0  0
    0.0000    0.0000    0.0000 C   0  0  0  0  0  0  0  0  0  0  0  0
    0.0000    0.0000    0.0000 C   0  0  0  0  0  0  0  0  0  0  0  0
    0.0000    0.0000    0.0000 C   0  0  0  0  0  0  0  0  0  0  0  0
    0.0000    0.0000    0.0000 C   0  0  0  0  0  0  0  0  0  0  0  0
    0.0000    0.0000    0.0000 O   0  0  0  0  0  0  0  0  0  0  0  0
    0.0000    0.0000    0.0000 C   0  0  0  0  0  0  0  0  0  0  0  0
    0.0000    0.0000    0.0000 C   0  0  0  0  0  0  0  0  0  0  0  0
    0.0000    0.0000    0.0000 O   0  0  0  0  0  0  0  0  0  0  0  0
    0.0000    0.0000    0.0000 C   0  0  0  0  0  0  0  0  0  0  0  0
    0.0000    0.0000    0.0000 C   0  0  0  0  0  0  0  0  0  0  0  0
  1  2  1  0
  2  3  1  0
  2  4  1  0
  4  5  1  0
  5  6  1  0
  6  7  2  0
  7  8  1  0
  8  9  2  0
  9 10  1  0
 10 11  1  0
 11 12  1  0
 12 13  2  0
 13 14  1  0
 14 15  1  0
 13 16  1  0
 16 17  2  0
 17 18  1  0
 18 19  2  0
 19 20  1  0
 20 21  2  0
 19 22  1  0
 22 23  2  0
 23 24  1  0
 24 25  2  0
 25 26  1  0
 25 27  1  0
 27 28  2  0
 28 29  1  0
  9 30  1  0
 30 31  2  0
 31  6  1  0
 15 11  2  0
 21 16  1  0
 28 22  1  0
M  END
>  <pIC50>  (139) 
5.96

>  <ChEMBL_ID>  (139) 
CHEMBL398606

>  <document_journal>  (139) 
J. Med. Chem.

>  <bao_endpoint>  (139) 
BAO_0000190

>  <potential_duplicate>  (139) 
False

>  <uo_units>  (139) 
UO_0000065

>  <canonical_smiles>  (139) 
CC(C)NCc1ccc(Nc2cc([nH]n2)c3ccc(cc3)c4ccc(O)cc4O)cc1

>  <parent_molecule_chembl_id>  (139) 
CHEMBL398606

>  <assay_type>  (139) 
B

>  <src_id>  (139) 
1

>  <ligand_efficiency>  (139) 
{u'le': u'0.26', u'bei': u'14.38', u'sei': u'6.39', u'lle': u'0.49'}

>  <standard_flag>  (139) 
True

>  <molecule_chembl_id>  (139) 
CHEMBL398606

>  <target_organism>  (139) 
Homo sapiens

>  <standard_units>  (139) 
nM

>  <record_id>  (139) 
663624

>  <document_chembl_id>  (139) 
CHEMBL1137531

>  <bao_format>  (139) 
BAO_0000357

>  <data_validity_description>  (139) 
None

>  <activity_id>  (139) 
1989391

>  <standard_type>  (139) 
IC50

>  <target_chembl_id>  (139) 
CHEMBL1862

>  <data_validity_comment>  (139) 
None

>  <published_value>  (139) 
1.1

>  <document_year>  (139) 
2007

>  <target_pref_name>  (139) 
Tyrosine-protein kinase ABL

>  <assay_chembl_id>  (139) 
CHEMBL899103

>  <standard_relation>  (139) 
=

>  <assay_description>  (139) 
Inhibition of ABL

>  <published_relation>  (139) 
=

>  <standard_value>  (139) 
1100

>  <qudt_units>  (139) 
http://www.openphacts.org/units/Nanomolar

>  <target_tax_id>  (139) 
9606

>  <bao_label>  (139) 
single protein format

>  <published_units>  (139) 
uM

>  <pchembl_value>  (139) 
5.96

>  <published_type>  (139) 
IC50

>  <activity_comment>  (139) 
None

$$$$

     RDKit          

 33 36  0  0  0  0  0  0  0  0999 V2000
    0.0000    0.0000    0.0000 C   0  0  0  0  0  0  0  0  0  0  0  0
    0.0000    0.0000    0.0000 C   0  0  0  0  0  0  0  0  0  0  0  0
    0.0000    0.0000    0.0000 N   0  0  0  0  0  0  0  0  0  0  0  0
    0.0000    0.0000    0.0000 C   0  0  0  0  0  0  0  0  0  0  0  0
    0.0000    0.0000    0.0000 N   0  0  0  0  0  0  0  0  0  0  0  0
    0.0000    0.0000    0.0000 C   0  0  0  0  0  0  0  0  0  0  0  0
    0.0000    0.0000    0.0000 N   0  0  0  0  0  0  0  0  0  0  0  0
    0.0000    0.0000    0.0000 C   0  0  0  0  0  0  0  0  0  0  0  0
    0.0000    0.0000    0.0000 C   0  0  0  0  0  0  0  0  0  0  0  0
    0.0000    0.0000    0.0000 S   0  0  0  0  0  0  0  0  0  0  0  0
    0.0000    0.0000    0.0000 C   0  0  0  0  0  0  0  0  0  0  0  0
    0.0000    0.0000    0.0000 O   0  0  0  0  0  0  0  0  0  0  0  0
    0.0000    0.0000    0.0000 N   0  0  0  0  0  0  0  0  0  0  0  0
    0.0000    0.0000    0.0000 C   0  0  0  0  0  0  0  0  0  0  0  0
    0.0000    0.0000    0.0000 C   0  0  0  0  0  0  0  0  0  0  0  0
    0.0000    0.0000    0.0000 C   0  0  0  0  0  0  0  0  0  0  0  0
    0.0000    0.0000    0.0000 C   0  0  0  0  0  0  0  0  0  0  0  0
    0.0000    0.0000    0.0000 C   0  0  0  0  0  0  0  0  0  0  0  0
    0.0000    0.0000    0.0000 C   0  0  0  0  0  0  0  0  0  0  0  0
    0.0000    0.0000    0.0000 C   0  0  0  0  0  0  0  0  0  0  0  0
    0.0000    0.0000    0.0000 Cl  0  0  0  0  0  0  0  0  0  0  0  0
    0.0000    0.0000    0.0000 C   0  0  0  0  0  0  0  0  0  0  0  0
    0.0000    0.0000    0.0000 C   0  0  0  0  0  0  0  0  0  0  0  0
    0.0000    0.0000    0.0000 N   0  0  0  0  0  0  0  0  0  0  0  0
    0.0000    0.0000    0.0000 N   0  0  0  0  0  0  0  0  0  0  0  0
    0.0000    0.0000    0.0000 C   0  0  0  0  0  0  0  0  0  0  0  0
    0.0000    0.0000    0.0000 C   0  0  0  0  0  0  0  0  0  0  0  0
    0.0000    0.0000    0.0000 N   0  0  0  0  0  0  0  0  0  0  0  0
    0.0000    0.0000    0.0000 C   0  0  0  0  0  0  0  0  0  0  0  0
    0.0000    0.0000    0.0000 C   0  0  0  0  0  0  0  0  0  0  0  0
    0.0000    0.0000    0.0000 O   0  0  0  0  0  0  0  0  0  0  0  0
    0.0000    0.0000    0.0000 C   0  0  0  0  0  0  0  0  0  0  0  0
    0.0000    0.0000    0.0000 C   0  0  0  0  0  0  0  0  0  0  0  0
  1  2  1  0
  2  3  2  0
  3  4  1  0
  4  5  1  0
  5  6  1  0
  6  7  2  0
  7  8  1  0
  8  9  2  0
  9 10  1  0
  9 11  1  0
 11 12  2  0
 11 13  1  0
 13 14  1  0
 14 15  2  0
 15 16  1  0
 15 17  1  0
 17 18  2  0
 18 19  1  0
 19 20  2  0
 20 21  1  0
  4 22  2  0
 22 23  1  0
 23 24  2  0
 23 25  1  0
 25 26  1  0
 26 27  1  0
 27 28  1  0
 28 29  1  0
 29 30  1  0
 30 31  1  0
 28 32  1  0
 32 33  1  0
 24  2  1  0
 10  6  1  0
 20 14  1  0
 33 25  1  0
M  END
>  <pIC50>  (140) 
8.951

>  <ChEMBL_ID>  (140) 
CHEMBL1421

>  <document_journal>  (140) 
J. Med. Chem.

>  <bao_endpoint>  (140) 
BAO_0000190

>  <potential_duplicate>  (140) 
False

>  <uo_units>  (140) 
UO_0000065

>  <canonical_smiles>  (140) 
Cc1nc(Nc2ncc(s2)C(=O)Nc3c(C)cccc3Cl)cc(n1)N4CCN(CCO)CC4

>  <parent_molecule_chembl_id>  (140) 
CHEMBL1421

>  <assay_type>  (140) 
B

>  <src_id>  (140) 
1

>  <ligand_efficiency>  (140) 
{u'le': u'0.35', u'bei': u'17.17', u'sei': u'6.22', u'lle': u'4.94'}

>  <standard_flag>  (140) 
True

>  <molecule_chembl_id>  (140) 
CHEMBL1421

>  <target_organism>  (140) 
Homo sapiens

>  <standard_units>  (140) 
nM

>  <record_id>  (140) 
666051

>  <document_chembl_id>  (140) 
CHEMBL1138257

>  <bao_format>  (140) 
BAO_0000357

>  <data_validity_description>  (140) 
None

>  <activity_id>  (140) 
2000756

>  <standard_type>  (140) 
IC50

>  <target_chembl_id>  (140) 
CHEMBL1862

>  <data_validity_comment>  (140) 
None

>  <published_value>  (140) 
4.2

>  <document_year>  (140) 
2007

>  <target_pref_name>  (140) 
Tyrosine-protein kinase ABL

>  <assay_chembl_id>  (140) 
CHEMBL901542

>  <standard_relation>  (140) 
=

>  <assay_description>  (140) 
Inhibition of Abl kinase

>  <published_relation>  (140) 
=

>  <standard_value>  (140) 
4.2

>  <qudt_units>  (140) 
http://www.openphacts.org/units/Nanomolar

>  <target_tax_id>  (140) 
9606

>  <bao_label>  (140) 
single protein format

>  <published_units>  (140) 
nM

>  <pchembl_value>  (140) 
8.38

>  <published_type>  (140) 
IC50

>  <activity_comment>  (140) 
None

$$$$

     RDKit          

 33 36  0  0  0  0  0  0  0  0999 V2000
    0.0000    0.0000    0.0000 C   0  0  0  0  0  0  0  0  0  0  0  0
    0.0000    0.0000    0.0000 C   0  0  0  0  0  0  0  0  0  0  0  0
    0.0000    0.0000    0.0000 N   0  0  0  0  0  0  0  0  0  0  0  0
    0.0000    0.0000    0.0000 C   0  0  0  0  0  0  0  0  0  0  0  0
    0.0000    0.0000    0.0000 N   0  0  0  0  0  0  0  0  0  0  0  0
    0.0000    0.0000    0.0000 C   0  0  0  0  0  0  0  0  0  0  0  0
    0.0000    0.0000    0.0000 N   0  0  0  0  0  0  0  0  0  0  0  0
    0.0000    0.0000    0.0000 C   0  0  0  0  0  0  0  0  0  0  0  0
    0.0000    0.0000    0.0000 C   0  0  0  0  0  0  0  0  0  0  0  0
    0.0000    0.0000    0.0000 S   0  0  0  0  0  0  0  0  0  0  0  0
    0.0000    0.0000    0.0000 C   0  0  0  0  0  0  0  0  0  0  0  0
    0.0000    0.0000    0.0000 O   0  0  0  0  0  0  0  0  0  0  0  0
    0.0000    0.0000    0.0000 N   0  0  0  0  0  0  0  0  0  0  0  0
    0.0000    0.0000    0.0000 C   0  0  0  0  0  0  0  0  0  0  0  0
    0.0000    0.0000    0.0000 C   0  0  0  0  0  0  0  0  0  0  0  0
    0.0000    0.0000    0.0000 C   0  0  0  0  0  0  0  0  0  0  0  0
    0.0000    0.0000    0.0000 C   0  0  0  0  0  0  0  0  0  0  0  0
    0.0000    0.0000    0.0000 C   0  0  0  0  0  0  0  0  0  0  0  0
    0.0000    0.0000    0.0000 C   0  0  0  0  0  0  0  0  0  0  0  0
    0.0000    0.0000    0.0000 C   0  0  0  0  0  0  0  0  0  0  0  0
    0.0000    0.0000    0.0000 Cl  0  0  0  0  0  0  0  0  0  0  0  0
    0.0000    0.0000    0.0000 C   0  0  0  0  0  0  0  0  0  0  0  0
    0.0000    0.0000    0.0000 C   0  0  0  0  0  0  0  0  0  0  0  0
    0.0000    0.0000    0.0000 N   0  0  0  0  0  0  0  0  0  0  0  0
    0.0000    0.0000    0.0000 N   0  0  0  0  0  0  0  0  0  0  0  0
    0.0000    0.0000    0.0000 C   0  0  0  0  0  0  0  0  0  0  0  0
    0.0000    0.0000    0.0000 C   0  0  0  0  0  0  0  0  0  0  0  0
    0.0000    0.0000    0.0000 N   0  0  0  0  0  0  0  0  0  0  0  0
    0.0000    0.0000    0.0000 C   0  0  0  0  0  0  0  0  0  0  0  0
    0.0000    0.0000    0.0000 C   0  0  0  0  0  0  0  0  0  0  0  0
    0.0000    0.0000    0.0000 F   0  0  0  0  0  0  0  0  0  0  0  0
    0.0000    0.0000    0.0000 C   0  0  0  0  0  0  0  0  0  0  0  0
    0.0000    0.0000    0.0000 C   0  0  0  0  0  0  0  0  0  0  0  0
  1  2  1  0
  2  3  2  0
  3  4  1  0
  4  5  1  0
  5  6  1  0
  6  7  2  0
  7  8  1  0
  8  9  2  0
  9 10  1  0
  9 11  1  0
 11 12  2  0
 11 13  1  0
 13 14  1  0
 14 15  2  0
 15 16  1  0
 15 17  1  0
 17 18  2  0
 18 19  1  0
 19 20  2  0
 20 21  1  0
  4 22  2  0
 22 23  1  0
 23 24  2  0
 23 25  1  0
 25 26  1  0
 26 27  1  0
 27 28  1  0
 28 29  1  0
 29 30  1  0
 30 31  1  0
 28 32  1  0
 32 33  1  0
 24  2  1  0
 10  6  1  0
 20 14  1  0
 33 25  1  0
M  END
>  <pIC50>  (141) 
8.04

>  <ChEMBL_ID>  (141) 
CHEMBL240158

>  <document_journal>  (141) 
J. Med. Chem.

>  <bao_endpoint>  (141) 
BAO_0000190

>  <potential_duplicate>  (141) 
False

>  <uo_units>  (141) 
UO_0000065

>  <canonical_smiles>  (141) 
Cc1nc(Nc2ncc(s2)C(=O)Nc3c(C)cccc3Cl)cc(n1)N4CCN(CCF)CC4

>  <parent_molecule_chembl_id>  (141) 
CHEMBL240158

>  <assay_type>  (141) 
B

>  <src_id>  (141) 
1

>  <ligand_efficiency>  (141) 
{u'le': u'0.33', u'bei': u'16.41', u'sei': u'7.02', u'lle': u'3.66'}

>  <standard_flag>  (141) 
True

>  <molecule_chembl_id>  (141) 
CHEMBL240158

>  <target_organism>  (141) 
Homo sapiens

>  <standard_units>  (141) 
nM

>  <record_id>  (141) 
666052

>  <document_chembl_id>  (141) 
CHEMBL1138257

>  <bao_format>  (141) 
BAO_0000357

>  <data_validity_description>  (141) 
None

>  <activity_id>  (141) 
2000761

>  <standard_type>  (141) 
IC50

>  <target_chembl_id>  (141) 
CHEMBL1862

>  <data_validity_comment>  (141) 
None

>  <published_value>  (141) 
9.1

>  <document_year>  (141) 
2007

>  <target_pref_name>  (141) 
Tyrosine-protein kinase ABL

>  <assay_chembl_id>  (141) 
CHEMBL901542

>  <standard_relation>  (141) 
=

>  <assay_description>  (141) 
Inhibition of Abl kinase

>  <published_relation>  (141) 
=

>  <standard_value>  (141) 
9.1

>  <qudt_units>  (141) 
http://www.openphacts.org/units/Nanomolar

>  <target_tax_id>  (141) 
9606

>  <bao_label>  (141) 
single protein format

>  <published_units>  (141) 
nM

>  <pchembl_value>  (141) 
8.04

>  <published_type>  (141) 
IC50

>  <activity_comment>  (141) 
None

$$$$

     RDKit          

 43 48  0  0  0  0  0  0  0  0999 V2000
    0.0000    0.0000    0.0000 C   0  0  0  0  0  0  0  0  0  0  0  0
    0.0000    0.0000    0.0000 C   0  0  0  0  0  0  0  0  0  0  0  0
    0.0000    0.0000    0.0000 C   0  0  0  0  0  0  0  0  0  0  0  0
    0.0000    0.0000    0.0000 C   0  0  0  0  0  0  0  0  0  0  0  0
    0.0000    0.0000    0.0000 C   0  0  0  0  0  0  0  0  0  0  0  0
    0.0000    0.0000    0.0000 C   0  0  0  0  0  0  0  0  0  0  0  0
    0.0000    0.0000    0.0000 C   0  0  0  0  0  0  0  0  0  0  0  0
    0.0000    0.0000    0.0000 N   0  0  0  0  0  0  0  0  0  0  0  0
    0.0000    0.0000    0.0000 N   0  0  0  0  0  0  0  0  0  0  0  0
    0.0000    0.0000    0.0000 C   0  0  0  0  0  0  0  0  0  0  0  0
    0.0000    0.0000    0.0000 C   0  0  0  0  0  0  0  0  0  0  0  0
    0.0000    0.0000    0.0000 C   0  0  0  0  0  0  0  0  0  0  0  0
    0.0000    0.0000    0.0000 N   0  0  0  0  0  0  0  0  0  0  0  0
    0.0000    0.0000    0.0000 C   0  0  0  0  0  0  0  0  0  0  0  0
    0.0000    0.0000    0.0000 O   0  0  0  0  0  0  0  0  0  0  0  0
    0.0000    0.0000    0.0000 N   0  0  0  0  0  0  0  0  0  0  0  0
    0.0000    0.0000    0.0000 C   0  0  0  0  0  0  0  0  0  0  0  0
    0.0000    0.0000    0.0000 C   0  0  0  0  0  0  0  0  0  0  0  0
    0.0000    0.0000    0.0000 C   0  0  0  0  0  0  0  0  0  0  0  0
    0.0000    0.0000    0.0000 C   0  0  0  0  0  0  0  0  0  0  0  0
    0.0000    0.0000    0.0000 C   0  0  0  0  0  0  0  0  0  0  0  0
    0.0000    0.0000    0.0000 C   0  0  0  0  0  0  0  0  0  0  0  0
    0.0000    0.0000    0.0000 C   0  0  0  0  0  0  0  0  0  0  0  0
    0.0000    0.0000    0.0000 C   0  0  0  0  0  0  0  0  0  0  0  0
    0.0000    0.0000    0.0000 C   0  0  0  0  0  0  0  0  0  0  0  0
    0.0000    0.0000    0.0000 N   0  0  0  0  0  0  0  0  0  0  0  0
    0.0000    0.0000    0.0000 C   0  0  0  0  0  0  0  0  0  0  0  0
    0.0000    0.0000    0.0000 C   0  0  0  0  0  0  0  0  0  0  0  0
    0.0000    0.0000    0.0000 O   0  0  0  0  0  0  0  0  0  0  0  0
    0.0000    0.0000    0.0000 C   0  0  0  0  0  0  0  0  0  0  0  0
    0.0000    0.0000    0.0000 C   0  0  0  0  0  0  0  0  0  0  0  0
    0.0000    0.0000    0.0000 N   0  0  0  0  0  0  0  0  0  0  0  0
    0.0000    0.0000    0.0000 C   0  0  0  0  0  0  0  0  0  0  0  0
    0.0000    0.0000    0.0000 C   0  0  0  0  0  0  0  0  0  0  0  0
    0.0000    0.0000    0.0000 C   0  0  0  0  0  0  0  0  0  0  0  0
    0.0000    0.0000    0.0000 C   0  0  0  0  0  0  0  0  0  0  0  0
    0.0000    0.0000    0.0000 C   0  0  0  0  0  0  0  0  0  0  0  0
    0.0000    0.0000    0.0000 C   0  0  0  0  0  0  0  0  0  0  0  0
    0.0000    0.0000    0.0000 C   0  0  0  0  0  0  0  0  0  0  0  0
    0.0000    0.0000    0.0000 C   0  0  0  0  0  0  0  0  0  0  0  0
    0.0000    0.0000    0.0000 C   0  0  0  0  0  0  0  0  0  0  0  0
    0.0000    0.0000    0.0000 C   0  0  0  0  0  0  0  0  0  0  0  0
    0.0000    0.0000    0.0000 C   0  0  0  0  0  0  0  0  0  0  0  0
  1  2  1  0
  2  3  2  0
  3  4  1  0
  4  5  2  0
  5  6  1  0
  6  7  2  0
  5  8  1  0
  8  9  1  0
  9 10  2  0
 10 11  1  0
 11 12  2  0
 12 13  1  0
 13 14  1  0
 14 15  2  0
 14 16  1  0
 16 17  1  0
 17 18  2  0
 18 19  1  0
 19 20  2  0
 20 21  1  0
 21 22  2  0
 22 23  1  0
 23 24  2  0
 24 25  1  0
 25 26  1  0
 26 27  1  0
 27 28  1  0
 28 29  1  0
 29 30  1  0
 30 31  1  0
 24 32  1  0
 32 33  2  0
 20 34  1  0
 34 35  2  0
 35 36  1  0
 36 37  2  0
 37 38  1  0
 38 39  2  0
 10 40  1  0
 40 41  1  0
 40 42  1  0
 40 43  1  0
  7  2  1  0
 12  8  1  0
 39 17  1  0
 33 21  1  0
 31 26  1  0
 39 34  1  0
M  END
>  <pIC50>  (142) 
6.0

>  <ChEMBL_ID>  (142) 
CHEMBL381743

>  <document_journal>  (142) 
Bioorg. Med. Chem. Lett.

>  <bao_endpoint>  (142) 
BAO_0000190

>  <potential_duplicate>  (142) 
False

>  <uo_units>  (142) 
UO_0000065

>  <canonical_smiles>  (142) 
Cc1ccc(cc1)n2nc(cc2NC(=O)Nc3ccc(c4ccc(CN5CCOCC5)nc4)c6ccccc36)C(C)(C)C

>  <parent_molecule_chembl_id>  (142) 
CHEMBL381743

>  <assay_type>  (142) 
B

>  <src_id>  (142) 
1

>  <ligand_efficiency>  (142) 
{u'le': u'0.19', u'bei': u'10.44', u'sei': u'7.12', u'lle': u'-0.44'}

>  <standard_flag>  (142) 
True

>  <molecule_chembl_id>  (142) 
CHEMBL381743

>  <target_organism>  (142) 
Homo sapiens

>  <standard_units>  (142) 
nM

>  <record_id>  (142) 
675701

>  <document_chembl_id>  (142) 
CHEMBL1140644

>  <bao_format>  (142) 
BAO_0000357

>  <data_validity_description>  (142) 
None

>  <activity_id>  (142) 
2035448

>  <standard_type>  (142) 
IC50

>  <target_chembl_id>  (142) 
CHEMBL1862

>  <data_validity_comment>  (142) 
None

>  <published_value>  (142) 
1

>  <document_year>  (142) 
2007

>  <target_pref_name>  (142) 
Tyrosine-protein kinase ABL

>  <assay_chembl_id>  (142) 
CHEMBL907534

>  <standard_relation>  (142) 
=

>  <assay_description>  (142) 
Inhibition of Abl

>  <published_relation>  (142) 
=

>  <standard_value>  (142) 
1000

>  <qudt_units>  (142) 
http://www.openphacts.org/units/Nanomolar

>  <target_tax_id>  (142) 
9606

>  <bao_label>  (142) 
single protein format

>  <published_units>  (142) 
uM

>  <pchembl_value>  (142) 
6

>  <published_type>  (142) 
IC50

>  <activity_comment>  (142) 
None

$$$$

     RDKit          

 33 35  0  0  0  0  0  0  0  0999 V2000
    0.0000    0.0000    0.0000 C   0  0  0  0  0  0  0  0  0  0  0  0
    0.0000    0.0000    0.0000 C   0  0  0  0  0  0  0  0  0  0  0  0
    0.0000    0.0000    0.0000 N   0  0  0  0  0  0  0  0  0  0  0  0
    0.0000    0.0000    0.0000 C   0  0  0  0  0  0  0  0  0  0  0  0
    0.0000    0.0000    0.0000 C   0  0  0  0  0  0  0  0  0  0  0  0
    0.0000    0.0000    0.0000 C   0  0  0  0  0  0  0  0  0  0  0  0
    0.0000    0.0000    0.0000 C   0  0  0  0  0  0  0  0  0  0  0  0
    0.0000    0.0000    0.0000 O   0  0  0  0  0  0  0  0  0  0  0  0
    0.0000    0.0000    0.0000 C   0  0  0  0  0  0  0  0  0  0  0  0
    0.0000    0.0000    0.0000 C   0  0  0  0  0  0  0  0  0  0  0  0
    0.0000    0.0000    0.0000 C   0  0  0  0  0  0  0  0  0  0  0  0
    0.0000    0.0000    0.0000 C   0  0  0  0  0  0  0  0  0  0  0  0
    0.0000    0.0000    0.0000 N   0  0  0  0  0  0  0  0  0  0  0  0
    0.0000    0.0000    0.0000 C   0  0  0  0  0  0  0  0  0  0  0  0
    0.0000    0.0000    0.0000 C   0  0  0  0  0  0  0  0  0  0  0  0
    0.0000    0.0000    0.0000 C   0  0  0  0  0  0  0  0  0  0  0  0
    0.0000    0.0000    0.0000 N   0  0  0  0  0  0  0  0  0  0  0  0
    0.0000    0.0000    0.0000 C   0  0  0  0  0  0  0  0  0  0  0  0
    0.0000    0.0000    0.0000 O   0  0  0  0  0  0  0  0  0  0  0  0
    0.0000    0.0000    0.0000 N   0  0  0  0  0  0  0  0  0  0  0  0
    0.0000    0.0000    0.0000 C   0  0  0  0  0  0  0  0  0  0  0  0
    0.0000    0.0000    0.0000 C   0  0  0  0  0  0  0  0  0  0  0  0
    0.0000    0.0000    0.0000 Cl  0  0  0  0  0  0  0  0  0  0  0  0
    0.0000    0.0000    0.0000 C   0  0  0  0  0  0  0  0  0  0  0  0
    0.0000    0.0000    0.0000 C   0  0  0  0  0  0  0  0  0  0  0  0
    0.0000    0.0000    0.0000 C   0  0  0  0  0  0  0  0  0  0  0  0
    0.0000    0.0000    0.0000 C   0  0  0  0  0  0  0  0  0  0  0  0
    0.0000    0.0000    0.0000 Cl  0  0  0  0  0  0  0  0  0  0  0  0
    0.0000    0.0000    0.0000 N   0  0  0  0  0  0  0  0  0  0  0  0
    0.0000    0.0000    0.0000 C   0  0  0  0  0  0  0  0  0  0  0  0
    0.0000    0.0000    0.0000 N   0  0  0  0  0  0  0  0  0  0  0  0
    0.0000    0.0000    0.0000 C   0  0  0  0  0  0  0  0  0  0  0  0
    0.0000    0.0000    0.0000 C   0  0  0  0  0  0  0  0  0  0  0  0
  1  2  1  0
  2  3  1  0
  3  4  1  0
  4  5  1  0
  3  6  1  0
  6  7  1  0
  7  8  1  0
  8  9  1  0
  9 10  2  0
 10 11  1  0
 11 12  2  0
 12 13  1  0
 13 14  1  0
 14 15  2  0
 15 16  1  0
 16 17  1  0
 17 18  1  0
 18 19  2  0
 18 20  1  0
 20 21  1  0
 21 22  2  0
 22 23  1  0
 22 24  1  0
 24 25  2  0
 25 26  1  0
 26 27  2  0
 27 28  1  0
 16 29  2  0
 29 30  1  0
 30 31  2  0
 12 32  1  0
 32 33  2  0
 33  9  1  0
 31 14  1  0
 27 21  1  0
M  END
>  <pIC50>  (143) 
6.6

>  <ChEMBL_ID>  (143) 
CHEMBL253292

>  <document_journal>  (143) 
Bioorg. Med. Chem. Lett.

>  <bao_endpoint>  (143) 
BAO_0000190

>  <potential_duplicate>  (143) 
False

>  <uo_units>  (143) 
UO_0000065

>  <canonical_smiles>  (143) 
CCN(CC)CCOc1ccc(Nc2cc(NC(=O)Nc3c(Cl)cccc3Cl)ncn2)cc1

>  <parent_molecule_chembl_id>  (143) 
CHEMBL253292

>  <assay_type>  (143) 
B

>  <src_id>  (143) 
1

>  <ligand_efficiency>  (143) 
{u'le': u'0.27', u'bei': u'13.49', u'sei': u'7.22', u'lle': u'1.08'}

>  <standard_flag>  (143) 
True

>  <molecule_chembl_id>  (143) 
CHEMBL253292

>  <target_organism>  (143) 
Homo sapiens

>  <standard_units>  (143) 
nM

>  <record_id>  (143) 
689561

>  <document_chembl_id>  (143) 
CHEMBL1141507

>  <bao_format>  (143) 
BAO_0000357

>  <data_validity_description>  (143) 
None

>  <activity_id>  (143) 
2080193

>  <standard_type>  (143) 
IC50

>  <target_chembl_id>  (143) 
CHEMBL1862

>  <data_validity_comment>  (143) 
None

>  <published_value>  (143) 
0.25

>  <document_year>  (143) 
2008

>  <target_pref_name>  (143) 
Tyrosine-protein kinase ABL

>  <assay_chembl_id>  (143) 
CHEMBL929548

>  <standard_relation>  (143) 
=

>  <assay_description>  (143) 
Inhibition of cABL

>  <published_relation>  (143) 
=

>  <standard_value>  (143) 
250

>  <qudt_units>  (143) 
http://www.openphacts.org/units/Nanomolar

>  <target_tax_id>  (143) 
9606

>  <bao_label>  (143) 
single protein format

>  <published_units>  (143) 
uM

>  <pchembl_value>  (143) 
6.6

>  <published_type>  (143) 
IC50

>  <activity_comment>  (143) 
None

$$$$

     RDKit          

 43 47  0  0  0  0  0  0  0  0999 V2000
    0.0000    0.0000    0.0000 C   0  0  0  0  0  0  0  0  0  0  0  0
    0.0000    0.0000    0.0000 N   0  0  0  0  0  0  0  0  0  0  0  0
    0.0000    0.0000    0.0000 C   0  0  0  0  0  0  0  0  0  0  0  0
    0.0000    0.0000    0.0000 C   0  0  0  0  0  0  0  0  0  0  0  0
    0.0000    0.0000    0.0000 N   0  0  0  0  0  0  0  0  0  0  0  0
    0.0000    0.0000    0.0000 C   0  0  0  0  0  0  0  0  0  0  0  0
    0.0000    0.0000    0.0000 C   0  0  0  0  0  0  0  0  0  0  0  0
    0.0000    0.0000    0.0000 C   0  0  0  0  0  0  0  0  0  0  0  0
    0.0000    0.0000    0.0000 C   0  0  0  0  0  0  0  0  0  0  0  0
    0.0000    0.0000    0.0000 C   0  0  0  0  0  0  0  0  0  0  0  0
    0.0000    0.0000    0.0000 C   0  0  0  0  0  0  0  0  0  0  0  0
    0.0000    0.0000    0.0000 N   0  0  0  0  0  0  0  0  0  0  0  0
    0.0000    0.0000    0.0000 C   0  0  0  0  0  0  0  0  0  0  0  0
    0.0000    0.0000    0.0000 N   0  0  0  0  0  0  0  0  0  0  0  0
    0.0000    0.0000    0.0000 C   0  0  0  0  0  0  0  0  0  0  0  0
    0.0000    0.0000    0.0000 C   0  0  0  0  0  0  0  0  0  0  0  0
    0.0000    0.0000    0.0000 N   0  0  0  0  0  0  0  0  0  0  0  0
    0.0000    0.0000    0.0000 C   0  0  0  0  0  0  0  0  0  0  0  0
    0.0000    0.0000    0.0000 O   0  0  0  0  0  0  0  0  0  0  0  0
    0.0000    0.0000    0.0000 C   0  0  0  0  0  0  0  0  0  0  0  0
    0.0000    0.0000    0.0000 C   0  0  0  0  0  0  0  0  0  0  0  0
    0.0000    0.0000    0.0000 C   0  0  0  0  0  0  0  0  0  0  0  0
    0.0000    0.0000    0.0000 N   0  0  0  0  0  0  0  0  0  0  0  0
    0.0000    0.0000    0.0000 C   0  0  0  0  0  0  0  0  0  0  0  0
    0.0000    0.0000    0.0000 O   0  0  0  0  0  0  0  0  0  0  0  0
    0.0000    0.0000    0.0000 C   0  0  0  0  0  0  0  0  0  0  0  0
    0.0000    0.0000    0.0000 C   0  0  0  0  0  0  0  0  0  0  0  0
    0.0000    0.0000    0.0000 C   0  0  0  0  0  0  0  0  0  0  0  0
    0.0000    0.0000    0.0000 C   0  0  0  0  0  0  0  0  0  0  0  0
    0.0000    0.0000    0.0000 C   0  0  0  0  0  0  0  0  0  0  0  0
    0.0000    0.0000    0.0000 C   0  0  0  0  0  0  0  0  0  0  0  0
    0.0000    0.0000    0.0000 C   0  0  0  0  0  0  0  0  0  0  0  0
    0.0000    0.0000    0.0000 F   0  0  0  0  0  0  0  0  0  0  0  0
    0.0000    0.0000    0.0000 F   0  0  0  0  0  0  0  0  0  0  0  0
    0.0000    0.0000    0.0000 F   0  0  0  0  0  0  0  0  0  0  0  0
    0.0000    0.0000    0.0000 C   0  0  0  0  0  0  0  0  0  0  0  0
    0.0000    0.0000    0.0000 C   0  0  0  0  0  0  0  0  0  0  0  0
    0.0000    0.0000    0.0000 C   0  0  0  0  0  0  0  0  0  0  0  0
    0.0000    0.0000    0.0000 C   0  0  0  0  0  0  0  0  0  0  0  0
    0.0000    0.0000    0.0000 C   0  0  0  0  0  0  0  0  0  0  0  0
    0.0000    0.0000    0.0000 N   0  0  0  0  0  0  0  0  0  0  0  0
    0.0000    0.0000    0.0000 C   0  0  0  0  0  0  0  0  0  0  0  0
    0.0000    0.0000    0.0000 C   0  0  0  0  0  0  0  0  0  0  0  0
  1  2  1  0
  2  3  1  0
  3  4  1  0
  4  5  1  0
  5  6  1  0
  6  7  1  0
  5  8  1  0
  8  9  2  0
  9 10  1  0
 10 11  2  0
 11 12  1  0
 12 13  1  0
 13 14  2  0
 14 15  1  0
 15 16  2  0
 16 17  1  0
 17 18  1  0
 18 19  2  0
 18 20  1  0
 20 21  2  0
 21 22  1  0
 22 23  1  0
 23 24  1  0
 24 25  2  0
 24 26  1  0
 26 27  2  0
 27 28  1  0
 28 29  2  0
 29 30  1  0
 30 31  2  0
 30 32  1  0
 32 33  1  0
 32 34  1  0
 32 35  1  0
 22 36  2  0
 36 37  1  0
 37 38  2  0
 38 39  1  0
 16 40  1  0
 40 41  2  0
 11 42  1  0
 42 43  2  0
  7  2  1  0
 43  8  1  0
 41 13  1  0
 38 20  1  0
 31 26  1  0
M  END
>  <pIC50>  (144) 
8.7

>  <ChEMBL_ID>  (144) 
CHEMBL272888

>  <document_journal>  (144) 
J. Med. Chem.

>  <bao_endpoint>  (144) 
BAO_0000190

>  <potential_duplicate>  (144) 
False

>  <uo_units>  (144) 
UO_0000065

>  <canonical_smiles>  (144) 
CN1CCN(CC1)c2ccc(Nc3ncc(NC(=O)c4cc(NC(=O)c5cccc(c5)C(F)(F)F)ccc4C)cn3)cc2

>  <parent_molecule_chembl_id>  (144) 
CHEMBL272888

>  <assay_type>  (144) 
B

>  <src_id>  (144) 
1

>  <ligand_efficiency>  (144) 
{u'le': u'0.28', u'bei': u'14.75', u'sei': u'8.49', u'lle': u'3.46'}

>  <standard_flag>  (144) 
True

>  <molecule_chembl_id>  (144) 
CHEMBL272888

>  <target_organism>  (144) 
Homo sapiens

>  <standard_units>  (144) 
nM

>  <record_id>  (144) 
706450

>  <document_chembl_id>  (144) 
CHEMBL1144680

>  <bao_format>  (144) 
BAO_0000357

>  <data_validity_description>  (144) 
None

>  <activity_id>  (144) 
2120473

>  <standard_type>  (144) 
IC50

>  <target_chembl_id>  (144) 
CHEMBL1862

>  <data_validity_comment>  (144) 
None

>  <published_value>  (144) 
0.002

>  <document_year>  (144) 
2008

>  <target_pref_name>  (144) 
Tyrosine-protein kinase ABL

>  <assay_chembl_id>  (144) 
CHEMBL951121

>  <standard_relation>  (144) 
=

>  <assay_description>  (144) 
Inhibition of Abl by HTRF assay

>  <published_relation>  (144) 
=

>  <standard_value>  (144) 
2

>  <qudt_units>  (144) 
http://www.openphacts.org/units/Nanomolar

>  <target_tax_id>  (144) 
9606

>  <bao_label>  (144) 
single protein format

>  <published_units>  (144) 
uM

>  <pchembl_value>  (144) 
8.7

>  <published_type>  (144) 
IC50

>  <activity_comment>  (144) 
None

$$$$

     RDKit          

 31 35  0  0  0  0  0  0  0  0999 V2000
    0.0000    0.0000    0.0000 C   0  0  0  0  0  0  0  0  0  0  0  0
    0.0000    0.0000    0.0000 O   0  0  0  0  0  0  0  0  0  0  0  0
    0.0000    0.0000    0.0000 C   0  0  0  0  0  0  0  0  0  0  0  0
    0.0000    0.0000    0.0000 C   0  0  0  0  0  0  0  0  0  0  0  0
    0.0000    0.0000    0.0000 C   0  0  0  0  0  0  0  0  0  0  0  0
    0.0000    0.0000    0.0000 N   0  0  0  0  0  0  0  0  0  0  0  0
    0.0000    0.0000    0.0000 C   0  0  0  0  0  0  0  0  0  0  0  0
    0.0000    0.0000    0.0000 C   0  0  0  0  0  0  0  0  0  0  0  0
    0.0000    0.0000    0.0000 C   0  0  0  0  0  0  0  0  0  0  0  0
    0.0000    0.0000    0.0000 O   0  0  0  0  0  0  0  0  0  0  0  0
    0.0000    0.0000    0.0000 C   0  0  0  0  0  0  0  0  0  0  0  0
    0.0000    0.0000    0.0000 C   0  0  0  0  0  0  0  0  0  0  0  0
    0.0000    0.0000    0.0000 C   0  0  0  0  0  0  0  0  0  0  0  0
    0.0000    0.0000    0.0000 C   0  0  0  0  0  0  0  0  0  0  0  0
    0.0000    0.0000    0.0000 C   0  0  0  0  0  0  0  0  0  0  0  0
    0.0000    0.0000    0.0000 C   0  0  0  0  0  0  0  0  0  0  0  0
    0.0000    0.0000    0.0000 C   0  0  0  0  0  0  0  0  0  0  0  0
    0.0000    0.0000    0.0000 C   0  0  0  0  0  0  0  0  0  0  0  0
    0.0000    0.0000    0.0000 C   0  0  0  0  0  0  0  0  0  0  0  0
    0.0000    0.0000    0.0000 C   0  0  0  0  0  0  0  0  0  0  0  0
    0.0000    0.0000    0.0000 C   0  0  0  0  0  0  0  0  0  0  0  0
    0.0000    0.0000    0.0000 O   0  0  0  0  0  0  0  0  0  0  0  0
    0.0000    0.0000    0.0000 N   0  0  0  0  0  0  0  0  0  0  0  0
    0.0000    0.0000    0.0000 C   0  0  0  0  0  0  0  0  0  0  0  0
    0.0000    0.0000    0.0000 C   0  0  0  0  0  0  0  0  0  0  0  0
    0.0000    0.0000    0.0000 C   0  0  0  0  0  0  0  0  0  0  0  0
    0.0000    0.0000    0.0000 C   0  0  0  0  0  0  0  0  0  0  0  0
    0.0000    0.0000    0.0000 C   0  0  0  0  0  0  0  0  0  0  0  0
    0.0000    0.0000    0.0000 C   0  0  0  0  0  0  0  0  0  0  0  0
    0.0000    0.0000    0.0000 O   0  0  0  0  0  0  0  0  0  0  0  0
    0.0000    0.0000    0.0000 C   0  0  0  0  0  0  0  0  0  0  0  0
  1  2  1  0
  2  3  1  0
  3  4  2  0
  4  5  1  0
  5  6  2  0
  6  7  1  0
  7  8  2  0
  8  9  1  0
  9 10  1  0
 10 11  1  0
 11 12  2  0
 12 13  1  0
 13 14  2  0
 14 15  1  0
 15 16  2  0
 16 17  1  0
 17 18  2  0
 18 19  1  0
 19 20  2  0
 15 21  1  0
 21 22  2  0
 21 23  1  0
 23 24  1  0
 24 25  1  0
 25 26  1  0
  9 27  2  0
 27 28  1  0
 28 29  2  0
 29 30  1  0
 30 31  1  0
 29  3  1  0
 27  5  1  0
 20 11  1  0
 19 14  1  0
 26 24  1  0
M  END
>  <pIC50>  (145) 
6.33

>  <ChEMBL_ID>  (145) 
CHEMBL272198

>  <document_journal>  (145) 
J. Med. Chem.

>  <bao_endpoint>  (145) 
BAO_0000190

>  <potential_duplicate>  (145) 
False

>  <uo_units>  (145) 
UO_0000065

>  <canonical_smiles>  (145) 
COc1cc2nccc(Oc3ccc4c(cccc4c3)C(=O)NC5CC5)c2cc1OC

>  <parent_molecule_chembl_id>  (145) 
CHEMBL272198

>  <assay_type>  (145) 
B

>  <src_id>  (145) 
1

>  <ligand_efficiency>  (145) 
{u'le': u'0.28', u'bei': u'15.28', u'sei': u'9.09', u'lle': u'2.18'}

>  <standard_flag>  (145) 
True

>  <molecule_chembl_id>  (145) 
CHEMBL272198

>  <target_organism>  (145) 
Homo sapiens

>  <standard_units>  (145) 
nM

>  <record_id>  (145) 
706508

>  <document_chembl_id>  (145) 
CHEMBL1144684

>  <bao_format>  (145) 
BAO_0000357

>  <data_validity_description>  (145) 
None

>  <activity_id>  (145) 
2120851

>  <standard_type>  (145) 
IC50

>  <target_chembl_id>  (145) 
CHEMBL1862

>  <data_validity_comment>  (145) 
None

>  <published_value>  (145) 
466

>  <document_year>  (145) 
2008

>  <target_pref_name>  (145) 
Tyrosine-protein kinase ABL

>  <assay_chembl_id>  (145) 
CHEMBL950238

>  <standard_relation>  (145) 
=

>  <assay_description>  (145) 
Inhibition of Abl

>  <published_relation>  (145) 
=

>  <standard_value>  (145) 
466

>  <qudt_units>  (145) 
http://www.openphacts.org/units/Nanomolar

>  <target_tax_id>  (145) 
9606

>  <bao_label>  (145) 
single protein format

>  <published_units>  (145) 
nM

>  <pchembl_value>  (145) 
6.33

>  <published_type>  (145) 
IC50

>  <activity_comment>  (145) 
None

$$$$

     RDKit          

 28 31  0  0  0  0  0  0  0  0999 V2000
    0.0000    0.0000    0.0000 C   0  0  0  0  0  0  0  0  0  0  0  0
    0.0000    0.0000    0.0000 O   0  0  0  0  0  0  0  0  0  0  0  0
    0.0000    0.0000    0.0000 C   0  0  0  0  0  0  0  0  0  0  0  0
    0.0000    0.0000    0.0000 C   0  0  0  0  0  0  0  0  0  0  0  0
    0.0000    0.0000    0.0000 C   0  0  0  0  0  0  0  0  0  0  0  0
    0.0000    0.0000    0.0000 N   0  0  0  0  0  0  0  0  0  0  0  0
    0.0000    0.0000    0.0000 C   0  0  0  0  0  0  0  0  0  0  0  0
    0.0000    0.0000    0.0000 C   0  0  0  0  0  0  0  0  0  0  0  0
    0.0000    0.0000    0.0000 C   0  0  0  0  0  0  0  0  0  0  0  0
    0.0000    0.0000    0.0000 O   0  0  0  0  0  0  0  0  0  0  0  0
    0.0000    0.0000    0.0000 C   0  0  0  0  0  0  0  0  0  0  0  0
    0.0000    0.0000    0.0000 C   0  0  0  0  0  0  0  0  0  0  0  0
    0.0000    0.0000    0.0000 C   0  0  0  0  0  0  0  0  0  0  0  0
    0.0000    0.0000    0.0000 C   0  0  0  0  0  0  0  0  0  0  0  0
    0.0000    0.0000    0.0000 C   0  0  0  0  0  0  0  0  0  0  0  0
    0.0000    0.0000    0.0000 C   0  0  0  0  0  0  0  0  0  0  0  0
    0.0000    0.0000    0.0000 C   0  0  0  0  0  0  0  0  0  0  0  0
    0.0000    0.0000    0.0000 C   0  0  0  0  0  0  0  0  0  0  0  0
    0.0000    0.0000    0.0000 C   0  0  0  0  0  0  0  0  0  0  0  0
    0.0000    0.0000    0.0000 C   0  0  0  0  0  0  0  0  0  0  0  0
    0.0000    0.0000    0.0000 C   0  0  0  0  0  0  0  0  0  0  0  0
    0.0000    0.0000    0.0000 O   0  0  0  0  0  0  0  0  0  0  0  0
    0.0000    0.0000    0.0000 N   0  0  0  0  0  0  0  0  0  0  0  0
    0.0000    0.0000    0.0000 C   0  0  0  0  0  0  0  0  0  0  0  0
    0.0000    0.0000    0.0000 C   0  0  0  0  0  0  0  0  0  0  0  0
    0.0000    0.0000    0.0000 C   0  0  0  0  0  0  0  0  0  0  0  0
    0.0000    0.0000    0.0000 O   0  0  0  0  0  0  0  0  0  0  0  0
    0.0000    0.0000    0.0000 C   0  0  0  0  0  0  0  0  0  0  0  0
  1  2  1  0
  2  3  1  0
  3  4  2  0
  4  5  1  0
  5  6  2  0
  6  7  1  0
  7  8  2  0
  8  9  1  0
  9 10  1  0
 10 11  1  0
 11 12  2  0
 12 13  1  0
 13 14  2  0
 14 15  1  0
 15 16  2  0
 16 17  1  0
 17 18  2  0
 18 19  1  0
 19 20  2  0
 15 21  1  0
 21 22  2  0
 21 23  1  0
  9 24  2  0
 24 25  1  0
 25 26  2  0
 26 27  1  0
 27 28  1  0
 26  3  1  0
 24  5  1  0
 20 11  1  0
 19 14  1  0
M  END
>  <pIC50>  (146) 
6.96

>  <ChEMBL_ID>  (146) 
CHEMBL271984

>  <document_journal>  (146) 
J. Med. Chem.

>  <bao_endpoint>  (146) 
BAO_0000190

>  <potential_duplicate>  (146) 
False

>  <uo_units>  (146) 
UO_0000065

>  <canonical_smiles>  (146) 
COc1cc2nccc(Oc3ccc4c(cccc4c3)C(=O)N)c2cc1OC

>  <parent_molecule_chembl_id>  (146) 
CHEMBL271984

>  <assay_type>  (146) 
B

>  <src_id>  (146) 
1

>  <ligand_efficiency>  (146) 
{u'le': u'0.34', u'bei': u'18.59', u'sei': u'8.32', u'lle': u'3.51'}

>  <standard_flag>  (146) 
True

>  <molecule_chembl_id>  (146) 
CHEMBL271984

>  <target_organism>  (146) 
Homo sapiens

>  <standard_units>  (146) 
nM

>  <record_id>  (146) 
706521

>  <document_chembl_id>  (146) 
CHEMBL1144684

>  <bao_format>  (146) 
BAO_0000357

>  <data_validity_description>  (146) 
None

>  <activity_id>  (146) 
2120856

>  <standard_type>  (146) 
IC50

>  <target_chembl_id>  (146) 
CHEMBL1862

>  <data_validity_comment>  (146) 
None

>  <published_value>  (146) 
110

>  <document_year>  (146) 
2008

>  <target_pref_name>  (146) 
Tyrosine-protein kinase ABL

>  <assay_chembl_id>  (146) 
CHEMBL950238

>  <standard_relation>  (146) 
=

>  <assay_description>  (146) 
Inhibition of Abl

>  <published_relation>  (146) 
=

>  <standard_value>  (146) 
110

>  <qudt_units>  (146) 
http://www.openphacts.org/units/Nanomolar

>  <target_tax_id>  (146) 
9606

>  <bao_label>  (146) 
single protein format

>  <published_units>  (146) 
nM

>  <pchembl_value>  (146) 
6.96

>  <published_type>  (146) 
IC50

>  <activity_comment>  (146) 
None

$$$$

     RDKit          

 42 46  0  0  0  0  0  0  0  0999 V2000
    0.0000    0.0000    0.0000 C   0  0  0  0  0  0  0  0  0  0  0  0
    0.0000    0.0000    0.0000 O   0  0  0  0  0  0  0  0  0  0  0  0
    0.0000    0.0000    0.0000 C   0  0  0  0  0  0  0  0  0  0  0  0
    0.0000    0.0000    0.0000 C   0  0  0  0  0  0  0  0  0  0  0  0
    0.0000    0.0000    0.0000 C   0  0  0  0  0  0  0  0  0  0  0  0
    0.0000    0.0000    0.0000 C   0  0  0  0  0  0  0  0  0  0  0  0
    0.0000    0.0000    0.0000 C   0  0  0  0  0  0  0  0  0  0  0  0
    0.0000    0.0000    0.0000 C   0  0  0  0  0  0  0  0  0  0  0  0
    0.0000    0.0000    0.0000 N   0  0  0  0  0  0  0  0  0  0  0  0
    0.0000    0.0000    0.0000 C   0  0  0  0  0  0  0  0  0  0  0  0
    0.0000    0.0000    0.0000 N   0  0  0  0  0  0  0  0  0  0  0  0
    0.0000    0.0000    0.0000 C   0  0  0  0  0  0  0  0  0  0  0  0
    0.0000    0.0000    0.0000 C   0  0  0  0  0  0  0  0  0  0  0  0
    0.0000    0.0000    0.0000 Cl  0  0  0  0  0  0  0  0  0  0  0  0
    0.0000    0.0000    0.0000 C   0  0  0  0  0  0  0  0  0  0  0  0
    0.0000    0.0000    0.0000 N   0  0  0  0  0  0  0  0  0  0  0  0
    0.0000    0.0000    0.0000 C   0  0  0  0  0  0  0  0  0  0  0  0
    0.0000    0.0000    0.0000 C   0  0  0  0  0  0  0  0  0  0  0  0
    0.0000    0.0000    0.0000 C   0  0  0  0  0  0  0  0  0  0  0  0
    0.0000    0.0000    0.0000 C   0  0  0  0  0  0  0  0  0  0  0  0
    0.0000    0.0000    0.0000 C   0  0  0  0  0  0  0  0  0  0  0  0
    0.0000    0.0000    0.0000 C   0  0  0  0  0  0  0  0  0  0  0  0
    0.0000    0.0000    0.0000 S   0  0  0  0  0  0  0  0  0  0  0  0
    0.0000    0.0000    0.0000 O   0  0  0  0  0  0  0  0  0  0  0  0
    0.0000    0.0000    0.0000 O   0  0  0  0  0  0  0  0  0  0  0  0
    0.0000    0.0000    0.0000 C   0  0  0  0  0  0  0  0  0  0  0  0
    0.0000    0.0000    0.0000 C   0  0  0  0  0  0  0  0  0  0  0  0
    0.0000    0.0000    0.0000 C   0  0  0  0  0  0  0  0  0  0  0  0
    0.0000    0.0000    0.0000 N   0  0  0  0  0  0  0  0  0  0  0  0
    0.0000    0.0000    0.0000 N   0  0  0  0  0  0  0  0  0  0  0  0
    0.0000    0.0000    0.0000 C   0  0  0  0  0  0  0  0  0  0  0  0
    0.0000    0.0000    0.0000 C   0  0  0  0  0  0  0  0  0  0  0  0
    0.0000    0.0000    0.0000 C   0  0  0  0  0  0  0  0  0  0  0  0
    0.0000    0.0000    0.0000 C   0  0  0  0  0  0  0  0  0  0  0  0
    0.0000    0.0000    0.0000 C   0  0  0  0  0  0  0  0  0  0  0  0
    0.0000    0.0000    0.0000 N   0  0  0  0  0  0  0  0  0  0  0  0
    0.0000    0.0000    0.0000 C   0  0  0  0  0  0  0  0  0  0  0  0
    0.0000    0.0000    0.0000 C   0  0  0  0  0  0  0  0  0  0  0  0
    0.0000    0.0000    0.0000 N   0  0  0  0  0  0  0  0  0  0  0  0
    0.0000    0.0000    0.0000 C   0  0  0  0  0  0  0  0  0  0  0  0
    0.0000    0.0000    0.0000 C   0  0  0  0  0  0  0  0  0  0  0  0
    0.0000    0.0000    0.0000 C   0  0  0  0  0  0  0  0  0  0  0  0
  1  2  1  0
  2  3  1  0
  3  4  2  0
  4  5  1  0
  5  6  2  0
  6  7  1  0
  7  8  2  0
  8  9  1  0
  9 10  1  0
 10 11  2  0
 11 12  1  0
 12 13  2  0
 13 14  1  0
 13 15  1  0
 15 16  1  0
 16 17  1  0
 17 18  2  0
 18 19  1  0
 19 20  2  0
 20 21  1  0
 21 22  2  0
 22 23  1  0
 23 24  2  0
 23 25  2  0
 23 26  1  0
 26 27  1  0
 26 28  1  0
 15 29  2  0
  5 30  1  0
 30 31  1  0
 31 32  1  0
 32 33  1  0
 33 34  1  0
 34 35  1  0
 33 36  1  0
 36 37  1  0
 37 38  1  0
 38 39  1  0
 39 40  1  0
 39 41  1  0
 41 42  1  0
  8  3  1  0
 29 10  1  0
 22 17  1  0
 35 30  1  0
 42 36  1  0
M  END
>  <pIC50>  (147) 
5.98

>  <ChEMBL_ID>  (147) 
CHEMBL509032

>  <document_journal>  (147) 
Proc. Natl. Acad. Sci. U.S.A.

>  <bao_endpoint>  (147) 
BAO_0000190

>  <potential_duplicate>  (147) 
False

>  <uo_units>  (147) 
UO_0000065

>  <canonical_smiles>  (147) 
COc1cc(ccc1Nc2ncc(Cl)c(Nc3ccccc3S(=O)(=O)C(C)C)n2)N4CCC(CC4)N5CCN(C)CC5

>  <parent_molecule_chembl_id>  (147) 
CHEMBL509032

>  <assay_type>  (147) 
B

>  <src_id>  (147) 
1

>  <ligand_efficiency>  (147) 
{u'le': u'0.19', u'bei': u'9.74', u'sei': u'5.37', u'lle': u'0.64'}

>  <standard_flag>  (147) 
True

>  <molecule_chembl_id>  (147) 
CHEMBL509032

>  <target_organism>  (147) 
Homo sapiens

>  <standard_units>  (147) 
nM

>  <record_id>  (147) 
764578

>  <document_chembl_id>  (147) 
CHEMBL1156430

>  <bao_format>  (147) 
BAO_0000357

>  <data_validity_description>  (147) 
None

>  <activity_id>  (147) 
2198015

>  <standard_type>  (147) 
IC50

>  <target_chembl_id>  (147) 
CHEMBL1862

>  <data_validity_comment>  (147) 
None

>  <published_value>  (147) 
1.048

>  <document_year>  (147) 
2007

>  <target_pref_name>  (147) 
Tyrosine-protein kinase ABL

>  <assay_chembl_id>  (147) 
CHEMBL1006345

>  <standard_relation>  (147) 
=

>  <assay_description>  (147) 
Inhibition of Tel-fused Abl kinase-mediated mouse BaF3 cell proliferation

>  <published_relation>  (147) 
=

>  <standard_value>  (147) 
1048

>  <qudt_units>  (147) 
http://www.openphacts.org/units/Nanomolar

>  <target_tax_id>  (147) 
9606

>  <bao_label>  (147) 
single protein format

>  <published_units>  (147) 
uM

>  <pchembl_value>  (147) 
5.98

>  <published_type>  (147) 
IC50

>  <activity_comment>  (147) 
None

$$$$

     RDKit          

 43 48  0  0  0  0  0  0  0  0999 V2000
    0.0000    0.0000    0.0000 C   0  0  0  0  0  0  0  0  0  0  0  0
    0.0000    0.0000    0.0000 C   0  0  0  0  0  0  0  0  0  0  0  0
    0.0000    0.0000    0.0000 N   0  0  0  0  0  0  0  0  0  0  0  0
    0.0000    0.0000    0.0000 C   0  0  0  0  0  0  0  0  0  0  0  0
    0.0000    0.0000    0.0000 C   0  0  0  0  0  0  0  0  0  0  0  0
    0.0000    0.0000    0.0000 C   0  0  0  0  0  0  0  0  0  0  0  0
    0.0000    0.0000    0.0000 C   0  0  0  0  0  0  0  0  0  0  0  0
    0.0000    0.0000    0.0000 O   0  0  0  0  0  0  0  0  0  0  0  0
    0.0000    0.0000    0.0000 N   0  0  0  0  0  0  0  0  0  0  0  0
    0.0000    0.0000    0.0000 C   0  0  0  0  0  0  0  0  0  0  0  0
    0.0000    0.0000    0.0000 C   0  0  0  0  0  0  0  0  0  0  0  0
    0.0000    0.0000    0.0000 C   0  0  0  0  0  0  0  0  0  0  0  0
    0.0000    0.0000    0.0000 C   0  0  0  0  0  0  0  0  0  0  0  0
    0.0000    0.0000    0.0000 C   0  0  0  0  0  0  0  0  0  0  0  0
    0.0000    0.0000    0.0000 C   0  0  0  0  0  0  0  0  0  0  0  0
    0.0000    0.0000    0.0000 S   0  0  0  0  0  0  0  0  0  0  0  0
    0.0000    0.0000    0.0000 O   0  0  0  0  0  0  0  0  0  0  0  0
    0.0000    0.0000    0.0000 O   0  0  0  0  0  0  0  0  0  0  0  0
    0.0000    0.0000    0.0000 C   0  0  0  0  0  0  0  0  0  0  0  0
    0.0000    0.0000    0.0000 C   0  0  0  0  0  0  0  0  0  0  0  0
    0.0000    0.0000    0.0000 C   0  0  0  0  0  0  0  0  0  0  0  0
    0.0000    0.0000    0.0000 Cl  0  0  0  0  0  0  0  0  0  0  0  0
    0.0000    0.0000    0.0000 C   0  0  0  0  0  0  0  0  0  0  0  0
    0.0000    0.0000    0.0000 C   0  0  0  0  0  0  0  0  0  0  0  0
    0.0000    0.0000    0.0000 C   0  0  0  0  0  0  0  0  0  0  0  0
    0.0000    0.0000    0.0000 C   0  0  0  0  0  0  0  0  0  0  0  0
    0.0000    0.0000    0.0000 Cl  0  0  0  0  0  0  0  0  0  0  0  0
    0.0000    0.0000    0.0000 C   0  0  0  0  0  0  0  0  0  0  0  0
    0.0000    0.0000    0.0000 C   0  0  0  0  0  0  0  0  0  0  0  0
    0.0000    0.0000    0.0000 C   0  0  0  0  0  0  0  0  0  0  0  0
    0.0000    0.0000    0.0000 C   0  0  0  0  0  0  0  0  0  0  0  0
    0.0000    0.0000    0.0000 O   0  0  0  0  0  0  0  0  0  0  0  0
    0.0000    0.0000    0.0000 N   0  0  0  0  0  0  0  0  0  0  0  0
    0.0000    0.0000    0.0000 C   0  0  0  0  0  0  0  0  0  0  0  0
    0.0000    0.0000    0.0000 C   0  0  0  0  0  0  0  0  0  0  0  0
    0.0000    0.0000    0.0000 C   0  0  0  0  0  0  0  0  0  0  0  0
    0.0000    0.0000    0.0000 C   0  0  0  0  0  0  0  0  0  0  0  0
    0.0000    0.0000    0.0000 C   0  0  0  0  0  0  0  0  0  0  0  0
    0.0000    0.0000    0.0000 N   0  0  0  0  0  0  0  0  0  0  0  0
    0.0000    0.0000    0.0000 C   0  0  0  0  0  0  0  0  0  0  0  0
    0.0000    0.0000    0.0000 C   0  0  0  0  0  0  0  0  0  0  0  0
    0.0000    0.0000    0.0000 C   0  0  0  0  0  0  0  0  0  0  0  0
    0.0000    0.0000    0.0000 C   0  0  0  0  0  0  0  0  0  0  0  0
  1  2  1  0
  2  3  1  0
  3  4  1  0
  4  5  1  0
  5  6  2  0
  6  7  1  0
  7  8  2  0
  7  9  1  0
  9 10  1  0
 10 11  2  0
 11 12  1  0
 12 13  2  0
 13 14  1  0
 14 15  2  0
 13 16  1  0
 16 17  2  0
 16 18  2  0
 16 19  1  0
 19 20  1  0
 20 21  2  0
 21 22  1  0
 21 23  1  0
 23 24  2  0
 24 25  1  0
 25 26  2  0
 26 27  1  0
  4 28  2  0
 28 29  1  0
 28 30  1  0
 30 31  1  0
 31 32  2  0
 31 33  1  0
 33 34  1  0
 34 35  1  0
 35 36  1  0
 36 37  1  0
 37 38  1  0
 38 39  1  0
 39 40  1  0
 40 41  1  0
 41 42  1  0
 42 43  1  0
 30  2  2  0
  6 15  1  0
 15 10  1  0
 26 20  1  0
 37 33  1  0
 43 39  1  0
M  END
>  <pIC50>  (148) 
5.85

>  <ChEMBL_ID>  (148) 
CHEMBL450786

>  <document_journal>  (148) 
Proc. Natl. Acad. Sci. U.S.A.

>  <bao_endpoint>  (148) 
BAO_0000190

>  <potential_duplicate>  (148) 
False

>  <uo_units>  (148) 
UO_0000065

>  <canonical_smiles>  (148) 
Cc1[nH]c(\C=C\2/C(=O)Nc3ccc(cc23)S(=O)(=O)Cc4c(Cl)cccc4Cl)c(C)c1C(=O)N5CCC[C@@H]5CN6CCCC6

>  <parent_molecule_chembl_id>  (148) 
CHEMBL450786

>  <assay_type>  (148) 
B

>  <src_id>  (148) 
1

>  <ligand_efficiency>  (148) 
{u'le': u'0.19', u'bei': u'9.12', u'sei': u'5.28', u'lle': u'0.16'}

>  <standard_flag>  (148) 
True

>  <molecule_chembl_id>  (148) 
CHEMBL450786

>  <target_organism>  (148) 
Homo sapiens

>  <standard_units>  (148) 
nM

>  <record_id>  (148) 
718582

>  <document_chembl_id>  (148) 
CHEMBL1149823

>  <bao_format>  (148) 
BAO_0000357

>  <data_validity_description>  (148) 
None

>  <activity_id>  (148) 
2206775

>  <standard_type>  (148) 
IC50

>  <target_chembl_id>  (148) 
CHEMBL1862

>  <data_validity_comment>  (148) 
None

>  <published_value>  (148) 
1.4

>  <document_year>  (148) 
2007

>  <target_pref_name>  (148) 
Tyrosine-protein kinase ABL

>  <assay_chembl_id>  (148) 
CHEMBL989734

>  <standard_relation>  (148) 
=

>  <assay_description>  (148) 
Inhibition of c-Abl

>  <published_relation>  (148) 
=

>  <standard_value>  (148) 
1400

>  <qudt_units>  (148) 
http://www.openphacts.org/units/Nanomolar

>  <target_tax_id>  (148) 
9606

>  <bao_label>  (148) 
single protein format

>  <published_units>  (148) 
uM

>  <pchembl_value>  (148) 
5.85

>  <published_type>  (148) 
IC50

>  <activity_comment>  (148) 
None

$$$$

     RDKit          

 30 33  0  0  0  0  0  0  0  0999 V2000
    0.0000    0.0000    0.0000 C   0  0  0  0  0  0  0  0  0  0  0  0
    0.0000    0.0000    0.0000 C   0  0  0  0  0  0  0  0  0  0  0  0
    0.0000    0.0000    0.0000 O   0  0  0  0  0  0  0  0  0  0  0  0
    0.0000    0.0000    0.0000 C   0  0  0  0  0  0  0  0  0  0  0  0
    0.0000    0.0000    0.0000 C   0  0  0  0  0  0  0  0  0  0  0  0
    0.0000    0.0000    0.0000 C   0  0  0  0  0  0  0  0  0  0  0  0
    0.0000    0.0000    0.0000 C   0  0  0  0  0  0  0  0  0  0  0  0
    0.0000    0.0000    0.0000 N   0  0  0  0  0  0  0  0  0  0  0  0
    0.0000    0.0000    0.0000 C   0  0  0  0  0  0  0  0  0  0  0  0
    0.0000    0.0000    0.0000 N   0  0  0  0  0  0  0  0  0  0  0  0
    0.0000    0.0000    0.0000 C   0  0  0  0  0  0  0  0  0  0  0  0
    0.0000    0.0000    0.0000 C   0  0  0  0  0  0  0  0  0  0  0  0
    0.0000    0.0000    0.0000 N   0  0  0  0  0  0  0  0  0  0  0  0
    0.0000    0.0000    0.0000 N   0  0  0  0  0  0  0  0  0  0  0  0
    0.0000    0.0000    0.0000 C   0  0  0  0  0  0  0  0  0  0  0  0
    0.0000    0.0000    0.0000 C   0  0  0  0  0  0  0  0  0  0  0  0
    0.0000    0.0000    0.0000 C   0  0  0  0  0  0  0  0  0  0  0  0
    0.0000    0.0000    0.0000 C   0  0  0  0  0  0  0  0  0  0  0  0
    0.0000    0.0000    0.0000 N   0  0  0  0  0  0  0  0  0  0  0  0
    0.0000    0.0000    0.0000 C   0  0  0  0  0  0  0  0  0  0  0  0
    0.0000    0.0000    0.0000 C   0  0  0  0  0  0  0  0  0  0  0  0
    0.0000    0.0000    0.0000 C   0  0  0  0  0  0  0  0  0  0  0  0
    0.0000    0.0000    0.0000 C   0  0  0  0  0  0  0  0  0  0  0  0
    0.0000    0.0000    0.0000 Cl  0  0  0  0  0  0  0  0  0  0  0  0
    0.0000    0.0000    0.0000 C   0  0  0  0  0  0  0  0  0  0  0  0
    0.0000    0.0000    0.0000 C   0  0  0  0  0  0  0  0  0  0  0  0
    0.0000    0.0000    0.0000 C   0  0  0  0  0  0  0  0  0  0  0  0
    0.0000    0.0000    0.0000 F   0  0  0  0  0  0  0  0  0  0  0  0
    0.0000    0.0000    0.0000 C   0  0  0  0  0  0  0  0  0  0  0  0
    0.0000    0.0000    0.0000 Cl  0  0  0  0  0  0  0  0  0  0  0  0
  1  2  1  0
  2  3  1  0
  3  4  1  0
  4  5  2  0
  5  6  1  0
  6  7  2  0
  7  8  1  0
  8  9  2  0
  9 10  1  0
  6 11  1  0
 11 12  1  0
 12 13  2  0
 13 14  1  0
 14 15  1  0
 14 16  1  0
 16 17  1  0
 17 18  1  0
 18 19  1  0
 19 20  1  0
 20 21  1  0
  2 22  1  0
 22 23  2  0
 23 24  1  0
 23 25  1  0
 25 26  2  0
 26 27  1  0
 27 28  1  0
 27 29  2  0
 29 30  1  0
  9  4  1  0
 15 11  2  0
 21 16  1  0
 29 22  1  0
M  END
>  <pIC50>  (149) 
6.78

>  <ChEMBL_ID>  (149) 
CHEMBL601719

>  <document_journal>  (149) 
Proc. Natl. Acad. Sci. U.S.A.

>  <bao_endpoint>  (149) 
BAO_0000190

>  <potential_duplicate>  (149) 
False

>  <uo_units>  (149) 
UO_0000065

>  <canonical_smiles>  (149) 
C[C@@H](Oc1cc(cnc1N)c2cnn(c2)C3CCNCC3)c4c(Cl)ccc(F)c4Cl

>  <parent_molecule_chembl_id>  (149) 
CHEMBL601719

>  <assay_type>  (149) 
B

>  <src_id>  (149) 
1

>  <ligand_efficiency>  (149) 
{u'le': u'0.27', u'bei': u'13.18', u'sei': u'7.61', u'lle': u'2.25'}

>  <standard_flag>  (149) 
True

>  <molecule_chembl_id>  (149) 
CHEMBL601719

>  <target_organism>  (149) 
Homo sapiens

>  <standard_units>  (149) 
nM

>  <record_id>  (149) 
718616

>  <document_chembl_id>  (149) 
CHEMBL1149823

>  <bao_format>  (149) 
BAO_0000357

>  <data_validity_description>  (149) 
None

>  <activity_id>  (149) 
2206974

>  <standard_type>  (149) 
IC50

>  <target_chembl_id>  (149) 
CHEMBL1862

>  <data_validity_comment>  (149) 
None

>  <published_value>  (149) 
1159

>  <document_year>  (149) 
2007

>  <target_pref_name>  (149) 
Tyrosine-protein kinase ABL

>  <assay_chembl_id>  (149) 
CHEMBL977768

>  <standard_relation>  (149) 
=

>  <assay_description>  (149) 
Inhibition of Abl

>  <published_relation>  (149) 
=

>  <standard_value>  (149) 
1159

>  <qudt_units>  (149) 
http://www.openphacts.org/units/Nanomolar

>  <target_tax_id>  (149) 
9606

>  <bao_label>  (149) 
single protein format

>  <published_units>  (149) 
nM

>  <pchembl_value>  (149) 
5.94

>  <published_type>  (149) 
IC50

>  <activity_comment>  (149) 
None

$$$$

     RDKit          

 37 40  0  0  0  0  0  0  0  0999 V2000
    0.0000    0.0000    0.0000 C   0  0  0  0  0  0  0  0  0  0  0  0
    0.0000    0.0000    0.0000 C   0  0  0  0  0  0  0  0  0  0  0  0
    0.0000    0.0000    0.0000 C   0  0  0  0  0  0  0  0  0  0  0  0
    0.0000    0.0000    0.0000 P   0  0  0  0  0  0  0  0  0  0  0  0
    0.0000    0.0000    0.0000 O   0  0  0  0  0  0  0  0  0  0  0  0
    0.0000    0.0000    0.0000 C   0  0  0  0  0  0  0  0  0  0  0  0
    0.0000    0.0000    0.0000 C   0  0  0  0  0  0  0  0  0  0  0  0
    0.0000    0.0000    0.0000 C   0  0  0  0  0  0  0  0  0  0  0  0
    0.0000    0.0000    0.0000 C   0  0  0  0  0  0  0  0  0  0  0  0
    0.0000    0.0000    0.0000 C   0  0  0  0  0  0  0  0  0  0  0  0
    0.0000    0.0000    0.0000 C   0  0  0  0  0  0  0  0  0  0  0  0
    0.0000    0.0000    0.0000 C   0  0  0  0  0  0  0  0  0  0  0  0
    0.0000    0.0000    0.0000 N   0  0  0  0  0  0  0  0  0  0  0  0
    0.0000    0.0000    0.0000 C   0  0  0  0  0  0  0  0  0  0  0  0
    0.0000    0.0000    0.0000 N   0  0  0  0  0  0  0  0  0  0  0  0
    0.0000    0.0000    0.0000 C   0  0  0  0  0  0  0  0  0  0  0  0
    0.0000    0.0000    0.0000 N   0  0  0  0  0  0  0  0  0  0  0  0
    0.0000    0.0000    0.0000 C   0  0  0  0  0  0  0  0  0  0  0  0
    0.0000    0.0000    0.0000 C   0  0  0  0  0  0  0  0  0  0  0  0
    0.0000    0.0000    0.0000 N   0  0  0  0  0  0  0  0  0  0  0  0
    0.0000    0.0000    0.0000 C   0  0  0  0  0  0  0  0  0  0  0  0
    0.0000    0.0000    0.0000 N   0  0  0  0  0  0  0  0  0  0  0  0
    0.0000    0.0000    0.0000 C   0  0  0  0  0  0  0  0  0  0  0  0
    0.0000    0.0000    0.0000 C   0  0  0  0  0  0  0  0  0  0  0  0
    0.0000    0.0000    0.0000 C   0  0  0  0  0  0  0  0  0  0  0  0
    0.0000    0.0000    0.0000 C   0  0  0  0  0  0  0  0  0  0  0  0
    0.0000    0.0000    0.0000 C   0  0  0  0  0  0  0  0  0  0  0  0
    0.0000    0.0000    0.0000 C   0  0  0  0  0  0  0  0  0  0  0  0
    0.0000    0.0000    0.0000 C   0  0  0  0  0  0  0  0  0  0  0  0
    0.0000    0.0000    0.0000 C   0  0  0  0  0  0  0  0  0  0  0  0
    0.0000    0.0000    0.0000 C   0  0  0  0  0  0  0  0  0  0  0  0
    0.0000    0.0000    0.0000 C   0  0  0  0  0  0  0  0  0  0  0  0
    0.0000    0.0000    0.0000 C   0  0  0  0  0  0  0  0  0  0  0  0
    0.0000    0.0000    0.0000 C   0  0  0  0  0  0  0  0  0  0  0  0
    0.0000    0.0000    0.0000 C   0  0  0  0  0  0  0  0  0  0  0  0
    0.0000    0.0000    0.0000 C   0  0  0  0  0  0  0  0  0  0  0  0
    0.0000    0.0000    0.0000 C   0  0  0  0  0  0  0  0  0  0  0  0
  1  2  1  0
  2  3  1  0
  3  4  1  0
  4  5  2  0
  4  6  1  0
  6  7  1  0
  7  8  1  0
  4  9  1  0
  9 10  2  0
 10 11  1  0
 11 12  2  0
 12 13  1  0
 13 14  1  0
 14 15  2  0
 15 16  1  0
 16 17  2  0
 17 18  1  0
 18 19  2  0
 19 20  1  0
 20 21  2  0
 21 22  1  0
 22 23  1  0
 23 24  2  0
 24 25  1  0
 25 26  2  0
 26 27  1  0
 26 28  1  0
 28 29  2  0
 29 30  1  0
 30 31  2  0
 31 32  1  0
 16 33  1  0
 33 34  1  0
 33 35  1  0
 12 36  1  0
 36 37  2  0
 37  9  1  0
 19 14  1  0
 22 18  1  0
 31 25  1  0
M  END
>  <pIC50>  (150) 
8.23

>  <ChEMBL_ID>  (150) 
CHEMBL528330

>  <document_journal>  (150) 
Bioorg. Med. Chem. Lett.

>  <bao_endpoint>  (150) 
BAO_0000190

>  <potential_duplicate>  (150) 
False

>  <uo_units>  (150) 
UO_0000065

>  <canonical_smiles>  (150) 
CCCP(=O)(CCC)c1ccc(Nc2nc(nc3c2ncn3\C=C\c4c(C)cccc4C)C(C)C)cc1

>  <parent_molecule_chembl_id>  (150) 
CHEMBL528330

>  <assay_type>  (150) 
B

>  <src_id>  (150) 
1

>  <ligand_efficiency>  (150) 
{u'le': u'0.3', u'bei': u'15.96', u'sei': u'9.97', u'lle': u'0.85'}

>  <standard_flag>  (150) 
True

>  <molecule_chembl_id>  (150) 
CHEMBL528330

>  <target_organism>  (150) 
Homo sapiens

>  <standard_units>  (150) 
nM

>  <record_id>  (150) 
721569

>  <document_chembl_id>  (150) 
CHEMBL1139396

>  <bao_format>  (150) 
BAO_0000357

>  <data_validity_description>  (150) 
None

>  <activity_id>  (150) 
2236532

>  <standard_type>  (150) 
IC50

>  <target_chembl_id>  (150) 
CHEMBL1862

>  <data_validity_comment>  (150) 
None

>  <published_value>  (150) 
5.93

>  <document_year>  (150) 
2008

>  <target_pref_name>  (150) 
Tyrosine-protein kinase ABL

>  <assay_chembl_id>  (150) 
CHEMBL976275

>  <standard_relation>  (150) 
=

>  <assay_description>  (150) 
Inhibition of Abl kinase

>  <published_relation>  (150) 
=

>  <standard_value>  (150) 
5.93

>  <qudt_units>  (150) 
http://www.openphacts.org/units/Nanomolar

>  <target_tax_id>  (150) 
9606

>  <bao_label>  (150) 
single protein format

>  <published_units>  (150) 
nM

>  <pchembl_value>  (150) 
8.23

>  <published_type>  (150) 
IC50

>  <activity_comment>  (150) 
None

$$$$

     RDKit          

 35 39  0  0  0  0  0  0  0  0999 V2000
    0.0000    0.0000    0.0000 C   0  0  0  0  0  0  0  0  0  0  0  0
    0.0000    0.0000    0.0000 C   0  0  0  0  0  0  0  0  0  0  0  0
    0.0000    0.0000    0.0000 C   0  0  0  0  0  0  0  0  0  0  0  0
    0.0000    0.0000    0.0000 C   0  0  0  0  0  0  0  0  0  0  0  0
    0.0000    0.0000    0.0000 C   0  0  0  0  0  0  0  0  0  0  0  0
    0.0000    0.0000    0.0000 C   0  0  0  0  0  0  0  0  0  0  0  0
    0.0000    0.0000    0.0000 C   0  0  0  0  0  0  0  0  0  0  0  0
    0.0000    0.0000    0.0000 C   0  0  0  0  0  0  0  0  0  0  0  0
    0.0000    0.0000    0.0000 C   0  0  0  0  0  0  0  0  0  0  0  0
    0.0000    0.0000    0.0000 C   0  0  0  0  0  0  0  0  0  0  0  0
    0.0000    0.0000    0.0000 N   0  0  0  0  0  0  0  0  0  0  0  0
    0.0000    0.0000    0.0000 C   0  0  0  0  0  0  0  0  0  0  0  0
    0.0000    0.0000    0.0000 N   0  0  0  0  0  0  0  0  0  0  0  0
    0.0000    0.0000    0.0000 C   0  0  0  0  0  0  0  0  0  0  0  0
    0.0000    0.0000    0.0000 C   0  0  0  0  0  0  0  0  0  0  0  0
    0.0000    0.0000    0.0000 N   0  0  0  0  0  0  0  0  0  0  0  0
    0.0000    0.0000    0.0000 C   0  0  0  0  0  0  0  0  0  0  0  0
    0.0000    0.0000    0.0000 C   0  0  0  0  0  0  0  0  0  0  0  0
    0.0000    0.0000    0.0000 C   0  0  0  0  0  0  0  0  0  0  0  0
    0.0000    0.0000    0.0000 C   0  0  0  0  0  0  0  0  0  0  0  0
    0.0000    0.0000    0.0000 C   0  0  0  0  0  0  0  0  0  0  0  0
    0.0000    0.0000    0.0000 C   0  0  0  0  0  0  0  0  0  0  0  0
    0.0000    0.0000    0.0000 P   0  0  0  0  0  0  0  0  0  0  0  0
    0.0000    0.0000    0.0000 O   0  0  0  0  0  0  0  0  0  0  0  0
    0.0000    0.0000    0.0000 C   0  0  0  0  0  0  0  0  0  0  0  0
    0.0000    0.0000    0.0000 C   0  0  0  0  0  0  0  0  0  0  0  0
    0.0000    0.0000    0.0000 N   0  0  0  0  0  0  0  0  0  0  0  0
    0.0000    0.0000    0.0000 C   0  0  0  0  0  0  0  0  0  0  0  0
    0.0000    0.0000    0.0000 N   0  0  0  0  0  0  0  0  0  0  0  0
    0.0000    0.0000    0.0000 C   0  0  0  0  0  0  0  0  0  0  0  0
    0.0000    0.0000    0.0000 C   0  0  0  0  0  0  0  0  0  0  0  0
    0.0000    0.0000    0.0000 C   0  0  0  0  0  0  0  0  0  0  0  0
    0.0000    0.0000    0.0000 C   0  0  0  0  0  0  0  0  0  0  0  0
    0.0000    0.0000    0.0000 C   0  0  0  0  0  0  0  0  0  0  0  0
    0.0000    0.0000    0.0000 C   0  0  0  0  0  0  0  0  0  0  0  0
  1  2  1  0
  2  3  2  0
  3  4  1  0
  4  5  2  0
  5  6  1  0
  6  7  1  0
  6  8  2  0
  8  9  1  0
  9 10  2  0
 10 11  1  0
 11 12  1  0
 12 13  2  0
 13 14  1  0
 14 15  2  0
 15 16  1  0
 16 17  1  0
 17 18  2  0
 18 19  1  0
 19 20  2  0
 20 21  1  0
 21 22  2  0
 20 23  1  0
 23 24  2  0
 23 25  1  0
 23 26  1  0
 15 27  1  0
 27 28  2  0
 28 29  1  0
 29 30  2  0
 28 31  1  0
 31 32  1  0
 32 33  1  0
 33 34  1  0
 34 35  1  0
  8  2  1  0
 30 11  1  0
 30 14  1  0
 22 17  1  0
 35 31  1  0
M  END
>  <pIC50>  (151) 
7.49

>  <ChEMBL_ID>  (151) 
CHEMBL460074

>  <document_journal>  (151) 
Bioorg. Med. Chem. Lett.

>  <bao_endpoint>  (151) 
BAO_0000190

>  <potential_duplicate>  (151) 
False

>  <uo_units>  (151) 
UO_0000065

>  <canonical_smiles>  (151) 
Cc1cccc(C)c1\C=C\n2cnc3c(Nc4ccc(cc4)P(=O)(C)C)nc(nc23)C5CCCC5

>  <parent_molecule_chembl_id>  (151) 
CHEMBL460074

>  <assay_type>  (151) 
B

>  <src_id>  (151) 
1

>  <ligand_efficiency>  (151) 
{u'le': u'0.29', u'bei': u'15.43', u'sei': u'9.08', u'lle': u'1.32'}

>  <standard_flag>  (151) 
True

>  <molecule_chembl_id>  (151) 
CHEMBL460074

>  <target_organism>  (151) 
Homo sapiens

>  <standard_units>  (151) 
nM

>  <record_id>  (151) 
722171

>  <document_chembl_id>  (151) 
CHEMBL1139396

>  <bao_format>  (151) 
BAO_0000357

>  <data_validity_description>  (151) 
None

>  <activity_id>  (151) 
2238225

>  <standard_type>  (151) 
IC50

>  <target_chembl_id>  (151) 
CHEMBL1862

>  <data_validity_comment>  (151) 
None

>  <published_value>  (151) 
32.3

>  <document_year>  (151) 
2008

>  <target_pref_name>  (151) 
Tyrosine-protein kinase ABL

>  <assay_chembl_id>  (151) 
CHEMBL976275

>  <standard_relation>  (151) 
=

>  <assay_description>  (151) 
Inhibition of Abl kinase

>  <published_relation>  (151) 
=

>  <standard_value>  (151) 
32.3

>  <qudt_units>  (151) 
http://www.openphacts.org/units/Nanomolar

>  <target_tax_id>  (151) 
9606

>  <bao_label>  (151) 
single protein format

>  <published_units>  (151) 
nM

>  <pchembl_value>  (151) 
7.49

>  <published_type>  (151) 
IC50

>  <activity_comment>  (151) 
None

$$$$

     RDKit          

 33 36  0  0  0  0  0  0  0  0999 V2000
    0.0000    0.0000    0.0000 C   0  0  0  0  0  0  0  0  0  0  0  0
    0.0000    0.0000    0.0000 C   0  0  0  0  0  0  0  0  0  0  0  0
    0.0000    0.0000    0.0000 C   0  0  0  0  0  0  0  0  0  0  0  0
    0.0000    0.0000    0.0000 C   0  0  0  0  0  0  0  0  0  0  0  0
    0.0000    0.0000    0.0000 N   0  0  0  0  0  0  0  0  0  0  0  0
    0.0000    0.0000    0.0000 C   0  0  0  0  0  0  0  0  0  0  0  0
    0.0000    0.0000    0.0000 N   0  0  0  0  0  0  0  0  0  0  0  0
    0.0000    0.0000    0.0000 C   0  0  0  0  0  0  0  0  0  0  0  0
    0.0000    0.0000    0.0000 C   0  0  0  0  0  0  0  0  0  0  0  0
    0.0000    0.0000    0.0000 C   0  0  0  0  0  0  0  0  0  0  0  0
    0.0000    0.0000    0.0000 C   0  0  0  0  0  0  0  0  0  0  0  0
    0.0000    0.0000    0.0000 C   0  0  0  0  0  0  0  0  0  0  0  0
    0.0000    0.0000    0.0000 C   0  0  0  0  0  0  0  0  0  0  0  0
    0.0000    0.0000    0.0000 P   0  0  0  0  0  0  0  0  0  0  0  0
    0.0000    0.0000    0.0000 O   0  0  0  0  0  0  0  0  0  0  0  0
    0.0000    0.0000    0.0000 C   0  0  0  0  0  0  0  0  0  0  0  0
    0.0000    0.0000    0.0000 C   0  0  0  0  0  0  0  0  0  0  0  0
    0.0000    0.0000    0.0000 C   0  0  0  0  0  0  0  0  0  0  0  0
    0.0000    0.0000    0.0000 N   0  0  0  0  0  0  0  0  0  0  0  0
    0.0000    0.0000    0.0000 C   0  0  0  0  0  0  0  0  0  0  0  0
    0.0000    0.0000    0.0000 N   0  0  0  0  0  0  0  0  0  0  0  0
    0.0000    0.0000    0.0000 C   0  0  0  0  0  0  0  0  0  0  0  0
    0.0000    0.0000    0.0000 C   0  0  0  0  0  0  0  0  0  0  0  0
    0.0000    0.0000    0.0000 C   0  0  0  0  0  0  0  0  0  0  0  0
    0.0000    0.0000    0.0000 C   0  0  0  0  0  0  0  0  0  0  0  0
    0.0000    0.0000    0.0000 C   0  0  0  0  0  0  0  0  0  0  0  0
    0.0000    0.0000    0.0000 C   0  0  0  0  0  0  0  0  0  0  0  0
    0.0000    0.0000    0.0000 C   0  0  0  0  0  0  0  0  0  0  0  0
    0.0000    0.0000    0.0000 C   0  0  0  0  0  0  0  0  0  0  0  0
    0.0000    0.0000    0.0000 C   0  0  0  0  0  0  0  0  0  0  0  0
    0.0000    0.0000    0.0000 C   0  0  0  0  0  0  0  0  0  0  0  0
    0.0000    0.0000    0.0000 C   0  0  0  0  0  0  0  0  0  0  0  0
    0.0000    0.0000    0.0000 N   0  0  0  0  0  0  0  0  0  0  0  0
  1  2  1  0
  2  3  1  0
  2  4  1  0
  4  5  2  0
  5  6  1  0
  6  7  1  0
  7  8  1  0
  8  9  2  0
  9 10  1  0
 10 11  2  0
 11 12  1  0
 12 13  2  0
 11 14  1  0
 14 15  2  0
 14 16  1  0
 14 17  1  0
  6 18  2  0
 18 19  1  0
 19 20  2  0
 20 21  1  0
 21 22  1  0
 22 23  2  0
 23 24  1  0
 24 25  2  0
 25 26  1  0
 25 27  1  0
 27 28  2  0
 28 29  1  0
 29 30  2  0
 30 31  1  0
 21 32  1  0
 32 33  2  0
 33  4  1  0
 13  8  1  0
 32 18  1  0
 30 24  1  0
M  END
>  <pIC50>  (152) 
7.8

>  <ChEMBL_ID>  (152) 
CHEMBL459877

>  <document_journal>  (152) 
Bioorg. Med. Chem. Lett.

>  <bao_endpoint>  (152) 
BAO_0000190

>  <potential_duplicate>  (152) 
False

>  <uo_units>  (152) 
UO_0000065

>  <canonical_smiles>  (152) 
CC(C)c1nc(Nc2ccc(cc2)P(=O)(C)C)c3ncn(\C=C\c4c(C)cccc4C)c3n1

>  <parent_molecule_chembl_id>  (152) 
CHEMBL459877

>  <assay_type>  (152) 
B

>  <src_id>  (152) 
1

>  <ligand_efficiency>  (152) 
{u'le': u'0.32', u'bei': u'16.98', u'sei': u'9.46', u'lle': u'2.17'}

>  <standard_flag>  (152) 
True

>  <molecule_chembl_id>  (152) 
CHEMBL459877

>  <target_organism>  (152) 
Homo sapiens

>  <standard_units>  (152) 
nM

>  <record_id>  (152) 
722170

>  <document_chembl_id>  (152) 
CHEMBL1139396

>  <bao_format>  (152) 
BAO_0000357

>  <data_validity_description>  (152) 
None

>  <activity_id>  (152) 
2238226

>  <standard_type>  (152) 
IC50

>  <target_chembl_id>  (152) 
CHEMBL1862

>  <data_validity_comment>  (152) 
None

>  <published_value>  (152) 
15.8

>  <document_year>  (152) 
2008

>  <target_pref_name>  (152) 
Tyrosine-protein kinase ABL

>  <assay_chembl_id>  (152) 
CHEMBL976275

>  <standard_relation>  (152) 
=

>  <assay_description>  (152) 
Inhibition of Abl kinase

>  <published_relation>  (152) 
=

>  <standard_value>  (152) 
15.8

>  <qudt_units>  (152) 
http://www.openphacts.org/units/Nanomolar

>  <target_tax_id>  (152) 
9606

>  <bao_label>  (152) 
single protein format

>  <published_units>  (152) 
nM

>  <pchembl_value>  (152) 
7.8

>  <published_type>  (152) 
IC50

>  <activity_comment>  (152) 
None

$$$$

     RDKit          

 37 41  0  0  0  0  0  0  0  0999 V2000
    0.0000    0.0000    0.0000 C   0  0  0  0  0  0  0  0  0  0  0  0
    0.0000    0.0000    0.0000 C   0  0  0  0  0  0  0  0  0  0  0  0
    0.0000    0.0000    0.0000 C   0  0  0  0  0  0  0  0  0  0  0  0
    0.0000    0.0000    0.0000 C   0  0  0  0  0  0  0  0  0  0  0  0
    0.0000    0.0000    0.0000 C   0  0  0  0  0  0  0  0  0  0  0  0
    0.0000    0.0000    0.0000 C   0  0  0  0  0  0  0  0  0  0  0  0
    0.0000    0.0000    0.0000 C   0  0  0  0  0  0  0  0  0  0  0  0
    0.0000    0.0000    0.0000 C   0  0  0  0  0  0  0  0  0  0  0  0
    0.0000    0.0000    0.0000 C   0  0  0  0  0  0  0  0  0  0  0  0
    0.0000    0.0000    0.0000 C   0  0  0  0  0  0  0  0  0  0  0  0
    0.0000    0.0000    0.0000 N   0  0  0  0  0  0  0  0  0  0  0  0
    0.0000    0.0000    0.0000 C   0  0  0  0  0  0  0  0  0  0  0  0
    0.0000    0.0000    0.0000 N   0  0  0  0  0  0  0  0  0  0  0  0
    0.0000    0.0000    0.0000 C   0  0  0  0  0  0  0  0  0  0  0  0
    0.0000    0.0000    0.0000 C   0  0  0  0  0  0  0  0  0  0  0  0
    0.0000    0.0000    0.0000 N   0  0  0  0  0  0  0  0  0  0  0  0
    0.0000    0.0000    0.0000 C   0  0  0  0  0  0  0  0  0  0  0  0
    0.0000    0.0000    0.0000 C   0  0  0  0  0  0  0  0  0  0  0  0
    0.0000    0.0000    0.0000 C   0  0  0  0  0  0  0  0  0  0  0  0
    0.0000    0.0000    0.0000 C   0  0  0  0  0  0  0  0  0  0  0  0
    0.0000    0.0000    0.0000 C   0  0  0  0  0  0  0  0  0  0  0  0
    0.0000    0.0000    0.0000 C   0  0  0  0  0  0  0  0  0  0  0  0
    0.0000    0.0000    0.0000 P   0  0  0  0  0  0  0  0  0  0  0  0
    0.0000    0.0000    0.0000 O   0  0  0  0  0  0  0  0  0  0  0  0
    0.0000    0.0000    0.0000 C   0  0  0  0  0  0  0  0  0  0  0  0
    0.0000    0.0000    0.0000 C   0  0  0  0  0  0  0  0  0  0  0  0
    0.0000    0.0000    0.0000 N   0  0  0  0  0  0  0  0  0  0  0  0
    0.0000    0.0000    0.0000 C   0  0  0  0  0  0  0  0  0  0  0  0
    0.0000    0.0000    0.0000 O   0  0  0  0  0  0  0  0  0  0  0  0
    0.0000    0.0000    0.0000 C   0  0  0  0  0  0  0  0  0  0  0  0
    0.0000    0.0000    0.0000 C   0  0  0  0  0  0  0  0  0  0  0  0
    0.0000    0.0000    0.0000 C   0  0  0  0  0  0  0  0  0  0  0  0
    0.0000    0.0000    0.0000 C   0  0  0  0  0  0  0  0  0  0  0  0
    0.0000    0.0000    0.0000 N   0  0  0  0  0  0  0  0  0  0  0  0
    0.0000    0.0000    0.0000 C   0  0  0  0  0  0  0  0  0  0  0  0
    0.0000    0.0000    0.0000 N   0  0  0  0  0  0  0  0  0  0  0  0
    0.0000    0.0000    0.0000 C   0  0  0  0  0  0  0  0  0  0  0  0
  1  2  1  0
  2  3  2  0
  3  4  1  0
  4  5  2  0
  5  6  1  0
  6  7  1  0
  6  8  2  0
  8  9  1  0
  9 10  2  0
 10 11  1  0
 11 12  1  0
 12 13  2  0
 13 14  1  0
 14 15  2  0
 15 16  1  0
 16 17  1  0
 17 18  2  0
 18 19  1  0
 19 20  2  0
 20 21  1  0
 21 22  2  0
 20 23  1  0
 23 24  2  0
 23 25  1  0
 23 26  1  0
 15 27  1  0
 27 28  2  0
 28 29  1  0
 29 30  1  0
 30 31  2  0
 31 32  1  0
 32 33  2  0
 33 34  1  0
 34 35  2  0
 28 36  1  0
 36 37  2  0
  8  2  1  0
 37 11  1  0
 37 14  1  0
 22 17  1  0
 35 30  1  0
M  END
>  <pIC50>  (153) 
9.3

>  <ChEMBL_ID>  (153) 
CHEMBL518166

>  <document_journal>  (153) 
Bioorg. Med. Chem. Lett.

>  <bao_endpoint>  (153) 
BAO_0000190

>  <potential_duplicate>  (153) 
False

>  <uo_units>  (153) 
UO_0000065

>  <canonical_smiles>  (153) 
Cc1cccc(C)c1\C=C\n2cnc3c(Nc4ccc(cc4)P(=O)(C)C)nc(Oc5cccnc5)nc23

>  <parent_molecule_chembl_id>  (153) 
CHEMBL518166

>  <assay_type>  (153) 
B

>  <src_id>  (153) 
1

>  <ligand_efficiency>  (153) 
{u'le': u'0.34', u'bei': u'18.22', u'sei': u'8.89', u'lle': u'3.82'}

>  <standard_flag>  (153) 
True

>  <molecule_chembl_id>  (153) 
CHEMBL518166

>  <target_organism>  (153) 
Homo sapiens

>  <standard_units>  (153) 
nM

>  <record_id>  (153) 
722093

>  <document_chembl_id>  (153) 
CHEMBL1139396

>  <bao_format>  (153) 
BAO_0000357

>  <data_validity_description>  (153) 
None

>  <activity_id>  (153) 
2238227

>  <standard_type>  (153) 
IC50

>  <target_chembl_id>  (153) 
CHEMBL1862

>  <data_validity_comment>  (153) 
None

>  <published_value>  (153) 
0.5

>  <document_year>  (153) 
2008

>  <target_pref_name>  (153) 
Tyrosine-protein kinase ABL

>  <assay_chembl_id>  (153) 
CHEMBL976275

>  <standard_relation>  (153) 
=

>  <assay_description>  (153) 
Inhibition of Abl kinase

>  <published_relation>  (153) 
=

>  <standard_value>  (153) 
0.5

>  <qudt_units>  (153) 
http://www.openphacts.org/units/Nanomolar

>  <target_tax_id>  (153) 
9606

>  <bao_label>  (153) 
single protein format

>  <published_units>  (153) 
nM

>  <pchembl_value>  (153) 
9.3

>  <published_type>  (153) 
IC50

>  <activity_comment>  (153) 
None

$$$$

     RDKit          

 35 38  0  0  0  0  0  0  0  0999 V2000
    0.0000    0.0000    0.0000 C   0  0  0  0  0  0  0  0  0  0  0  0
    0.0000    0.0000    0.0000 O   0  0  0  0  0  0  0  0  0  0  0  0
    0.0000    0.0000    0.0000 C   0  0  0  0  0  0  0  0  0  0  0  0
    0.0000    0.0000    0.0000 C   0  0  0  0  0  0  0  0  0  0  0  0
    0.0000    0.0000    0.0000 O   0  0  0  0  0  0  0  0  0  0  0  0
    0.0000    0.0000    0.0000 C   0  0  0  0  0  0  0  0  0  0  0  0
    0.0000    0.0000    0.0000 N   0  0  0  0  0  0  0  0  0  0  0  0
    0.0000    0.0000    0.0000 C   0  0  0  0  0  0  0  0  0  0  0  0
    0.0000    0.0000    0.0000 N   0  0  0  0  0  0  0  0  0  0  0  0
    0.0000    0.0000    0.0000 C   0  0  0  0  0  0  0  0  0  0  0  0
    0.0000    0.0000    0.0000 C   0  0  0  0  0  0  0  0  0  0  0  0
    0.0000    0.0000    0.0000 C   0  0  0  0  0  0  0  0  0  0  0  0
    0.0000    0.0000    0.0000 C   0  0  0  0  0  0  0  0  0  0  0  0
    0.0000    0.0000    0.0000 C   0  0  0  0  0  0  0  0  0  0  0  0
    0.0000    0.0000    0.0000 C   0  0  0  0  0  0  0  0  0  0  0  0
    0.0000    0.0000    0.0000 P   0  0  0  0  0  0  0  0  0  0  0  0
    0.0000    0.0000    0.0000 O   0  0  0  0  0  0  0  0  0  0  0  0
    0.0000    0.0000    0.0000 C   0  0  0  0  0  0  0  0  0  0  0  0
    0.0000    0.0000    0.0000 C   0  0  0  0  0  0  0  0  0  0  0  0
    0.0000    0.0000    0.0000 C   0  0  0  0  0  0  0  0  0  0  0  0
    0.0000    0.0000    0.0000 N   0  0  0  0  0  0  0  0  0  0  0  0
    0.0000    0.0000    0.0000 C   0  0  0  0  0  0  0  0  0  0  0  0
    0.0000    0.0000    0.0000 N   0  0  0  0  0  0  0  0  0  0  0  0
    0.0000    0.0000    0.0000 C   0  0  0  0  0  0  0  0  0  0  0  0
    0.0000    0.0000    0.0000 C   0  0  0  0  0  0  0  0  0  0  0  0
    0.0000    0.0000    0.0000 C   0  0  0  0  0  0  0  0  0  0  0  0
    0.0000    0.0000    0.0000 C   0  0  0  0  0  0  0  0  0  0  0  0
    0.0000    0.0000    0.0000 C   0  0  0  0  0  0  0  0  0  0  0  0
    0.0000    0.0000    0.0000 C   0  0  0  0  0  0  0  0  0  0  0  0
    0.0000    0.0000    0.0000 C   0  0  0  0  0  0  0  0  0  0  0  0
    0.0000    0.0000    0.0000 C   0  0  0  0  0  0  0  0  0  0  0  0
    0.0000    0.0000    0.0000 C   0  0  0  0  0  0  0  0  0  0  0  0
    0.0000    0.0000    0.0000 C   0  0  0  0  0  0  0  0  0  0  0  0
    0.0000    0.0000    0.0000 C   0  0  0  0  0  0  0  0  0  0  0  0
    0.0000    0.0000    0.0000 N   0  0  0  0  0  0  0  0  0  0  0  0
  1  2  1  0
  2  3  1  0
  3  4  1  0
  4  5  1  0
  5  6  1  0
  6  7  2  0
  7  8  1  0
  8  9  1  0
  9 10  1  0
 10 11  2  0
 11 12  1  0
 12 13  2  0
 13 14  1  0
 14 15  2  0
 13 16  1  0
 16 17  2  0
 16 18  1  0
 16 19  1  0
  8 20  2  0
 20 21  1  0
 21 22  2  0
 22 23  1  0
 23 24  1  0
 24 25  2  0
 25 26  1  0
 26 27  2  0
 27 28  1  0
 27 29  1  0
 29 30  2  0
 30 31  1  0
 31 32  2  0
 32 33  1  0
 23 34  1  0
 34 35  2  0
 35  6  1  0
 15 10  1  0
 34 20  1  0
 32 26  1  0
M  END
>  <pIC50>  (154) 
8.8

>  <ChEMBL_ID>  (154) 
CHEMBL461767

>  <document_journal>  (154) 
Bioorg. Med. Chem. Lett.

>  <bao_endpoint>  (154) 
BAO_0000190

>  <potential_duplicate>  (154) 
False

>  <uo_units>  (154) 
UO_0000065

>  <canonical_smiles>  (154) 
COCCOc1nc(Nc2ccc(cc2)P(=O)(C)C)c3ncn(\C=C\c4c(C)cccc4C)c3n1

>  <parent_molecule_chembl_id>  (154) 
CHEMBL461767

>  <assay_type>  (154) 
B

>  <src_id>  (154) 
1

>  <ligand_efficiency>  (154) 
{u'le': u'0.34', u'bei': u'17.91', u'sei': u'8.72', u'lle': u'3.88'}

>  <standard_flag>  (154) 
True

>  <molecule_chembl_id>  (154) 
CHEMBL461767

>  <target_organism>  (154) 
Homo sapiens

>  <standard_units>  (154) 
nM

>  <record_id>  (154) 
722091

>  <document_chembl_id>  (154) 
CHEMBL1139396

>  <bao_format>  (154) 
BAO_0000357

>  <data_validity_description>  (154) 
None

>  <activity_id>  (154) 
2238229

>  <standard_type>  (154) 
IC50

>  <target_chembl_id>  (154) 
CHEMBL1862

>  <data_validity_comment>  (154) 
None

>  <published_value>  (154) 
1.57

>  <document_year>  (154) 
2008

>  <target_pref_name>  (154) 
Tyrosine-protein kinase ABL

>  <assay_chembl_id>  (154) 
CHEMBL976275

>  <standard_relation>  (154) 
=

>  <assay_description>  (154) 
Inhibition of Abl kinase

>  <published_relation>  (154) 
=

>  <standard_value>  (154) 
1.57

>  <qudt_units>  (154) 
http://www.openphacts.org/units/Nanomolar

>  <target_tax_id>  (154) 
9606

>  <bao_label>  (154) 
single protein format

>  <published_units>  (154) 
nM

>  <pchembl_value>  (154) 
8.8

>  <published_type>  (154) 
IC50

>  <activity_comment>  (154) 
None

$$$$

     RDKit          

 34 37  0  0  0  0  0  0  0  0999 V2000
    0.0000    0.0000    0.0000 C   0  0  0  0  0  0  0  0  0  0  0  0
    0.0000    0.0000    0.0000 C   0  0  0  0  0  0  0  0  0  0  0  0
    0.0000    0.0000    0.0000 C   0  0  0  0  0  0  0  0  0  0  0  0
    0.0000    0.0000    0.0000 O   0  0  0  0  0  0  0  0  0  0  0  0
    0.0000    0.0000    0.0000 C   0  0  0  0  0  0  0  0  0  0  0  0
    0.0000    0.0000    0.0000 N   0  0  0  0  0  0  0  0  0  0  0  0
    0.0000    0.0000    0.0000 C   0  0  0  0  0  0  0  0  0  0  0  0
    0.0000    0.0000    0.0000 N   0  0  0  0  0  0  0  0  0  0  0  0
    0.0000    0.0000    0.0000 C   0  0  0  0  0  0  0  0  0  0  0  0
    0.0000    0.0000    0.0000 C   0  0  0  0  0  0  0  0  0  0  0  0
    0.0000    0.0000    0.0000 C   0  0  0  0  0  0  0  0  0  0  0  0
    0.0000    0.0000    0.0000 C   0  0  0  0  0  0  0  0  0  0  0  0
    0.0000    0.0000    0.0000 C   0  0  0  0  0  0  0  0  0  0  0  0
    0.0000    0.0000    0.0000 C   0  0  0  0  0  0  0  0  0  0  0  0
    0.0000    0.0000    0.0000 P   0  0  0  0  0  0  0  0  0  0  0  0
    0.0000    0.0000    0.0000 O   0  0  0  0  0  0  0  0  0  0  0  0
    0.0000    0.0000    0.0000 C   0  0  0  0  0  0  0  0  0  0  0  0
    0.0000    0.0000    0.0000 C   0  0  0  0  0  0  0  0  0  0  0  0
    0.0000    0.0000    0.0000 C   0  0  0  0  0  0  0  0  0  0  0  0
    0.0000    0.0000    0.0000 N   0  0  0  0  0  0  0  0  0  0  0  0
    0.0000    0.0000    0.0000 C   0  0  0  0  0  0  0  0  0  0  0  0
    0.0000    0.0000    0.0000 N   0  0  0  0  0  0  0  0  0  0  0  0
    0.0000    0.0000    0.0000 C   0  0  0  0  0  0  0  0  0  0  0  0
    0.0000    0.0000    0.0000 C   0  0  0  0  0  0  0  0  0  0  0  0
    0.0000    0.0000    0.0000 C   0  0  0  0  0  0  0  0  0  0  0  0
    0.0000    0.0000    0.0000 C   0  0  0  0  0  0  0  0  0  0  0  0
    0.0000    0.0000    0.0000 C   0  0  0  0  0  0  0  0  0  0  0  0
    0.0000    0.0000    0.0000 C   0  0  0  0  0  0  0  0  0  0  0  0
    0.0000    0.0000    0.0000 C   0  0  0  0  0  0  0  0  0  0  0  0
    0.0000    0.0000    0.0000 C   0  0  0  0  0  0  0  0  0  0  0  0
    0.0000    0.0000    0.0000 C   0  0  0  0  0  0  0  0  0  0  0  0
    0.0000    0.0000    0.0000 C   0  0  0  0  0  0  0  0  0  0  0  0
    0.0000    0.0000    0.0000 C   0  0  0  0  0  0  0  0  0  0  0  0
    0.0000    0.0000    0.0000 N   0  0  0  0  0  0  0  0  0  0  0  0
  1  2  1  0
  2  3  1  0
  2  4  1  0
  4  5  1  0
  5  6  2  0
  6  7  1  0
  7  8  1  0
  8  9  1  0
  9 10  2  0
 10 11  1  0
 11 12  2  0
 12 13  1  0
 13 14  2  0
 12 15  1  0
 15 16  2  0
 15 17  1  0
 15 18  1  0
  7 19  2  0
 19 20  1  0
 20 21  2  0
 21 22  1  0
 22 23  1  0
 23 24  2  0
 24 25  1  0
 25 26  2  0
 26 27  1  0
 26 28  1  0
 28 29  2  0
 29 30  1  0
 30 31  2  0
 31 32  1  0
 22 33  1  0
 33 34  2  0
 34  5  1  0
 14  9  1  0
 33 19  1  0
 31 25  1  0
M  END
>  <pIC50>  (155) 
8.14

>  <ChEMBL_ID>  (155) 
CHEMBL516498

>  <document_journal>  (155) 
Bioorg. Med. Chem. Lett.

>  <bao_endpoint>  (155) 
BAO_0000190

>  <potential_duplicate>  (155) 
False

>  <uo_units>  (155) 
UO_0000065

>  <canonical_smiles>  (155) 
CC(C)Oc1nc(Nc2ccc(cc2)P(=O)(C)C)c3ncn(\C=C\c4c(C)cccc4C)c3n1

>  <parent_molecule_chembl_id>  (155) 
CHEMBL516498

>  <assay_type>  (155) 
B

>  <src_id>  (155) 
1

>  <ligand_efficiency>  (155) 
{u'le': u'0.33', u'bei': u'17.11', u'sei': u'8.87', u'lle': u'2.36'}

>  <standard_flag>  (155) 
True

>  <molecule_chembl_id>  (155) 
CHEMBL516498

>  <target_organism>  (155) 
Homo sapiens

>  <standard_units>  (155) 
nM

>  <record_id>  (155) 
722090

>  <document_chembl_id>  (155) 
CHEMBL1139396

>  <bao_format>  (155) 
BAO_0000357

>  <data_validity_description>  (155) 
None

>  <activity_id>  (155) 
2238230

>  <standard_type>  (155) 
IC50

>  <target_chembl_id>  (155) 
CHEMBL1862

>  <data_validity_comment>  (155) 
None

>  <published_value>  (155) 
7.32

>  <document_year>  (155) 
2008

>  <target_pref_name>  (155) 
Tyrosine-protein kinase ABL

>  <assay_chembl_id>  (155) 
CHEMBL976275

>  <standard_relation>  (155) 
=

>  <assay_description>  (155) 
Inhibition of Abl kinase

>  <published_relation>  (155) 
=

>  <standard_value>  (155) 
7.32

>  <qudt_units>  (155) 
http://www.openphacts.org/units/Nanomolar

>  <target_tax_id>  (155) 
9606

>  <bao_label>  (155) 
single protein format

>  <published_units>  (155) 
nM

>  <pchembl_value>  (155) 
8.14

>  <published_type>  (155) 
IC50

>  <activity_comment>  (155) 
None

$$$$

     RDKit          

 32 35  0  0  0  0  0  0  0  0999 V2000
    0.0000    0.0000    0.0000 C   0  0  0  0  0  0  0  0  0  0  0  0
    0.0000    0.0000    0.0000 O   0  0  0  0  0  0  0  0  0  0  0  0
    0.0000    0.0000    0.0000 C   0  0  0  0  0  0  0  0  0  0  0  0
    0.0000    0.0000    0.0000 N   0  0  0  0  0  0  0  0  0  0  0  0
    0.0000    0.0000    0.0000 C   0  0  0  0  0  0  0  0  0  0  0  0
    0.0000    0.0000    0.0000 N   0  0  0  0  0  0  0  0  0  0  0  0
    0.0000    0.0000    0.0000 C   0  0  0  0  0  0  0  0  0  0  0  0
    0.0000    0.0000    0.0000 C   0  0  0  0  0  0  0  0  0  0  0  0
    0.0000    0.0000    0.0000 C   0  0  0  0  0  0  0  0  0  0  0  0
    0.0000    0.0000    0.0000 C   0  0  0  0  0  0  0  0  0  0  0  0
    0.0000    0.0000    0.0000 C   0  0  0  0  0  0  0  0  0  0  0  0
    0.0000    0.0000    0.0000 C   0  0  0  0  0  0  0  0  0  0  0  0
    0.0000    0.0000    0.0000 P   0  0  0  0  0  0  0  0  0  0  0  0
    0.0000    0.0000    0.0000 O   0  0  0  0  0  0  0  0  0  0  0  0
    0.0000    0.0000    0.0000 C   0  0  0  0  0  0  0  0  0  0  0  0
    0.0000    0.0000    0.0000 C   0  0  0  0  0  0  0  0  0  0  0  0
    0.0000    0.0000    0.0000 C   0  0  0  0  0  0  0  0  0  0  0  0
    0.0000    0.0000    0.0000 N   0  0  0  0  0  0  0  0  0  0  0  0
    0.0000    0.0000    0.0000 C   0  0  0  0  0  0  0  0  0  0  0  0
    0.0000    0.0000    0.0000 N   0  0  0  0  0  0  0  0  0  0  0  0
    0.0000    0.0000    0.0000 C   0  0  0  0  0  0  0  0  0  0  0  0
    0.0000    0.0000    0.0000 C   0  0  0  0  0  0  0  0  0  0  0  0
    0.0000    0.0000    0.0000 C   0  0  0  0  0  0  0  0  0  0  0  0
    0.0000    0.0000    0.0000 C   0  0  0  0  0  0  0  0  0  0  0  0
    0.0000    0.0000    0.0000 C   0  0  0  0  0  0  0  0  0  0  0  0
    0.0000    0.0000    0.0000 C   0  0  0  0  0  0  0  0  0  0  0  0
    0.0000    0.0000    0.0000 C   0  0  0  0  0  0  0  0  0  0  0  0
    0.0000    0.0000    0.0000 C   0  0  0  0  0  0  0  0  0  0  0  0
    0.0000    0.0000    0.0000 C   0  0  0  0  0  0  0  0  0  0  0  0
    0.0000    0.0000    0.0000 C   0  0  0  0  0  0  0  0  0  0  0  0
    0.0000    0.0000    0.0000 C   0  0  0  0  0  0  0  0  0  0  0  0
    0.0000    0.0000    0.0000 N   0  0  0  0  0  0  0  0  0  0  0  0
  1  2  1  0
  2  3  1  0
  3  4  2  0
  4  5  1  0
  5  6  1  0
  6  7  1  0
  7  8  2  0
  8  9  1  0
  9 10  2  0
 10 11  1  0
 11 12  2  0
 10 13  1  0
 13 14  2  0
 13 15  1  0
 13 16  1  0
  5 17  2  0
 17 18  1  0
 18 19  2  0
 19 20  1  0
 20 21  1  0
 21 22  2  0
 22 23  1  0
 23 24  2  0
 24 25  1  0
 24 26  1  0
 26 27  2  0
 27 28  1  0
 28 29  2  0
 29 30  1  0
 20 31  1  0
 31 32  2  0
 32  3  1  0
 12  7  1  0
 31 17  1  0
 29 23  1  0
M  END
>  <pIC50>  (156) 
8.75

>  <ChEMBL_ID>  (156) 
CHEMBL509002

>  <document_journal>  (156) 
Bioorg. Med. Chem. Lett.

>  <bao_endpoint>  (156) 
BAO_0000190

>  <potential_duplicate>  (156) 
False

>  <uo_units>  (156) 
UO_0000065

>  <canonical_smiles>  (156) 
COc1nc(Nc2ccc(cc2)P(=O)(C)C)c3ncn(\C=C\c4c(C)cccc4C)c3n1

>  <parent_molecule_chembl_id>  (156) 
CHEMBL509002

>  <assay_type>  (156) 
B

>  <src_id>  (156) 
1

>  <ligand_efficiency>  (156) 
{u'le': u'0.37', u'bei': u'19.54', u'sei': u'9.53', u'lle': u'3.69'}

>  <standard_flag>  (156) 
True

>  <molecule_chembl_id>  (156) 
CHEMBL509002

>  <target_organism>  (156) 
Homo sapiens

>  <standard_units>  (156) 
nM

>  <record_id>  (156) 
722015

>  <document_chembl_id>  (156) 
CHEMBL1139396

>  <bao_format>  (156) 
BAO_0000357

>  <data_validity_description>  (156) 
None

>  <activity_id>  (156) 
2238231

>  <standard_type>  (156) 
IC50

>  <target_chembl_id>  (156) 
CHEMBL1862

>  <data_validity_comment>  (156) 
None

>  <published_value>  (156) 
1.8

>  <document_year>  (156) 
2008

>  <target_pref_name>  (156) 
Tyrosine-protein kinase ABL

>  <assay_chembl_id>  (156) 
CHEMBL976275

>  <standard_relation>  (156) 
=

>  <assay_description>  (156) 
Inhibition of Abl kinase

>  <published_relation>  (156) 
=

>  <standard_value>  (156) 
1.8

>  <qudt_units>  (156) 
http://www.openphacts.org/units/Nanomolar

>  <target_tax_id>  (156) 
9606

>  <bao_label>  (156) 
single protein format

>  <published_units>  (156) 
nM

>  <pchembl_value>  (156) 
8.75

>  <published_type>  (156) 
IC50

>  <activity_comment>  (156) 
None

$$$$

     RDKit          

 35 39  0  0  0  0  0  0  0  0999 V2000
    0.0000    0.0000    0.0000 C   0  0  0  0  0  0  0  0  0  0  0  0
    0.0000    0.0000    0.0000 C   0  0  0  0  0  0  0  0  0  0  0  0
    0.0000    0.0000    0.0000 C   0  0  0  0  0  0  0  0  0  0  0  0
    0.0000    0.0000    0.0000 C   0  0  0  0  0  0  0  0  0  0  0  0
    0.0000    0.0000    0.0000 C   0  0  0  0  0  0  0  0  0  0  0  0
    0.0000    0.0000    0.0000 C   0  0  0  0  0  0  0  0  0  0  0  0
    0.0000    0.0000    0.0000 C   0  0  0  0  0  0  0  0  0  0  0  0
    0.0000    0.0000    0.0000 C   0  0  0  0  0  0  0  0  0  0  0  0
    0.0000    0.0000    0.0000 C   0  0  0  0  0  0  0  0  0  0  0  0
    0.0000    0.0000    0.0000 C   0  0  0  0  0  0  0  0  0  0  0  0
    0.0000    0.0000    0.0000 N   0  0  0  0  0  0  0  0  0  0  0  0
    0.0000    0.0000    0.0000 C   0  0  0  0  0  0  0  0  0  0  0  0
    0.0000    0.0000    0.0000 N   0  0  0  0  0  0  0  0  0  0  0  0
    0.0000    0.0000    0.0000 C   0  0  0  0  0  0  0  0  0  0  0  0
    0.0000    0.0000    0.0000 C   0  0  0  0  0  0  0  0  0  0  0  0
    0.0000    0.0000    0.0000 N   0  0  0  0  0  0  0  0  0  0  0  0
    0.0000    0.0000    0.0000 C   0  0  0  0  0  0  0  0  0  0  0  0
    0.0000    0.0000    0.0000 C   0  0  0  0  0  0  0  0  0  0  0  0
    0.0000    0.0000    0.0000 C   0  0  0  0  0  0  0  0  0  0  0  0
    0.0000    0.0000    0.0000 C   0  0  0  0  0  0  0  0  0  0  0  0
    0.0000    0.0000    0.0000 C   0  0  0  0  0  0  0  0  0  0  0  0
    0.0000    0.0000    0.0000 C   0  0  0  0  0  0  0  0  0  0  0  0
    0.0000    0.0000    0.0000 P   0  0  0  0  0  0  0  0  0  0  0  0
    0.0000    0.0000    0.0000 O   0  0  0  0  0  0  0  0  0  0  0  0
    0.0000    0.0000    0.0000 C   0  0  0  0  0  0  0  0  0  0  0  0
    0.0000    0.0000    0.0000 C   0  0  0  0  0  0  0  0  0  0  0  0
    0.0000    0.0000    0.0000 N   0  0  0  0  0  0  0  0  0  0  0  0
    0.0000    0.0000    0.0000 C   0  0  0  0  0  0  0  0  0  0  0  0
    0.0000    0.0000    0.0000 N   0  0  0  0  0  0  0  0  0  0  0  0
    0.0000    0.0000    0.0000 C   0  0  0  0  0  0  0  0  0  0  0  0
    0.0000    0.0000    0.0000 N   0  0  0  0  0  0  0  0  0  0  0  0
    0.0000    0.0000    0.0000 C   0  0  0  0  0  0  0  0  0  0  0  0
    0.0000    0.0000    0.0000 C   0  0  0  0  0  0  0  0  0  0  0  0
    0.0000    0.0000    0.0000 N   0  0  0  0  0  0  0  0  0  0  0  0
    0.0000    0.0000    0.0000 C   0  0  0  0  0  0  0  0  0  0  0  0
  1  2  1  0
  2  3  2  0
  3  4  1  0
  4  5  2  0
  5  6  1  0
  6  7  1  0
  6  8  2  0
  8  9  1  0
  9 10  2  0
 10 11  1  0
 11 12  1  0
 12 13  2  0
 13 14  1  0
 14 15  2  0
 15 16  1  0
 16 17  1  0
 17 18  2  0
 18 19  1  0
 19 20  2  0
 20 21  1  0
 21 22  2  0
 20 23  1  0
 23 24  2  0
 23 25  1  0
 23 26  1  0
 15 27  1  0
 27 28  2  0
 28 29  1  0
 29 30  2  0
 28 31  1  0
 31 32  1  0
 32 33  2  0
 33 34  1  0
 34 35  2  0
  8  2  1  0
 30 11  1  0
 30 14  1  0
 22 17  1  0
 35 31  1  0
M  END
>  <pIC50>  (157) 
8.79

>  <ChEMBL_ID>  (157) 
CHEMBL455384

>  <document_journal>  (157) 
Bioorg. Med. Chem. Lett.

>  <bao_endpoint>  (157) 
BAO_0000190

>  <potential_duplicate>  (157) 
False

>  <uo_units>  (157) 
UO_0000065

>  <canonical_smiles>  (157) 
Cc1cccc(C)c1\C=C\n2cnc3c(Nc4ccc(cc4)P(=O)(C)C)nc(nc23)n5ccnc5

>  <parent_molecule_chembl_id>  (157) 
CHEMBL455384

>  <assay_type>  (157) 
B

>  <src_id>  (157) 
1

>  <ligand_efficiency>  (157) 
{u'le': u'0.34', u'bei': u'18.18', u'sei': u'8.76', u'lle': u'4.05'}

>  <standard_flag>  (157) 
True

>  <molecule_chembl_id>  (157) 
CHEMBL455384

>  <target_organism>  (157) 
Homo sapiens

>  <standard_units>  (157) 
nM

>  <record_id>  (157) 
722014

>  <document_chembl_id>  (157) 
CHEMBL1139396

>  <bao_format>  (157) 
BAO_0000357

>  <data_validity_description>  (157) 
None

>  <activity_id>  (157) 
2238232

>  <standard_type>  (157) 
IC50

>  <target_chembl_id>  (157) 
CHEMBL1862

>  <data_validity_comment>  (157) 
None

>  <published_value>  (157) 
1.63

>  <document_year>  (157) 
2008

>  <target_pref_name>  (157) 
Tyrosine-protein kinase ABL

>  <assay_chembl_id>  (157) 
CHEMBL976275

>  <standard_relation>  (157) 
=

>  <assay_description>  (157) 
Inhibition of Abl kinase

>  <published_relation>  (157) 
=

>  <standard_value>  (157) 
1.63

>  <qudt_units>  (157) 
http://www.openphacts.org/units/Nanomolar

>  <target_tax_id>  (157) 
9606

>  <bao_label>  (157) 
single protein format

>  <published_units>  (157) 
nM

>  <pchembl_value>  (157) 
8.79

>  <published_type>  (157) 
IC50

>  <activity_comment>  (157) 
None

$$$$

     RDKit          

 37 41  0  0  0  0  0  0  0  0999 V2000
    0.0000    0.0000    0.0000 C   0  0  0  0  0  0  0  0  0  0  0  0
    0.0000    0.0000    0.0000 N   0  0  0  0  0  0  0  0  0  0  0  0
    0.0000    0.0000    0.0000 C   0  0  0  0  0  0  0  0  0  0  0  0
    0.0000    0.0000    0.0000 C   0  0  0  0  0  0  0  0  0  0  0  0
    0.0000    0.0000    0.0000 N   0  0  0  0  0  0  0  0  0  0  0  0
    0.0000    0.0000    0.0000 C   0  0  0  0  0  0  0  0  0  0  0  0
    0.0000    0.0000    0.0000 C   0  0  0  0  0  0  0  0  0  0  0  0
    0.0000    0.0000    0.0000 C   0  0  0  0  0  0  0  0  0  0  0  0
    0.0000    0.0000    0.0000 N   0  0  0  0  0  0  0  0  0  0  0  0
    0.0000    0.0000    0.0000 C   0  0  0  0  0  0  0  0  0  0  0  0
    0.0000    0.0000    0.0000 N   0  0  0  0  0  0  0  0  0  0  0  0
    0.0000    0.0000    0.0000 C   0  0  0  0  0  0  0  0  0  0  0  0
    0.0000    0.0000    0.0000 C   0  0  0  0  0  0  0  0  0  0  0  0
    0.0000    0.0000    0.0000 C   0  0  0  0  0  0  0  0  0  0  0  0
    0.0000    0.0000    0.0000 C   0  0  0  0  0  0  0  0  0  0  0  0
    0.0000    0.0000    0.0000 C   0  0  0  0  0  0  0  0  0  0  0  0
    0.0000    0.0000    0.0000 C   0  0  0  0  0  0  0  0  0  0  0  0
    0.0000    0.0000    0.0000 P   0  0  0  0  0  0  0  0  0  0  0  0
    0.0000    0.0000    0.0000 O   0  0  0  0  0  0  0  0  0  0  0  0
    0.0000    0.0000    0.0000 C   0  0  0  0  0  0  0  0  0  0  0  0
    0.0000    0.0000    0.0000 C   0  0  0  0  0  0  0  0  0  0  0  0
    0.0000    0.0000    0.0000 C   0  0  0  0  0  0  0  0  0  0  0  0
    0.0000    0.0000    0.0000 N   0  0  0  0  0  0  0  0  0  0  0  0
    0.0000    0.0000    0.0000 C   0  0  0  0  0  0  0  0  0  0  0  0
    0.0000    0.0000    0.0000 N   0  0  0  0  0  0  0  0  0  0  0  0
    0.0000    0.0000    0.0000 C   0  0  0  0  0  0  0  0  0  0  0  0
    0.0000    0.0000    0.0000 C   0  0  0  0  0  0  0  0  0  0  0  0
    0.0000    0.0000    0.0000 C   0  0  0  0  0  0  0  0  0  0  0  0
    0.0000    0.0000    0.0000 C   0  0  0  0  0  0  0  0  0  0  0  0
    0.0000    0.0000    0.0000 C   0  0  0  0  0  0  0  0  0  0  0  0
    0.0000    0.0000    0.0000 C   0  0  0  0  0  0  0  0  0  0  0  0
    0.0000    0.0000    0.0000 C   0  0  0  0  0  0  0  0  0  0  0  0
    0.0000    0.0000    0.0000 C   0  0  0  0  0  0  0  0  0  0  0  0
    0.0000    0.0000    0.0000 C   0  0  0  0  0  0  0  0  0  0  0  0
    0.0000    0.0000    0.0000 C   0  0  0  0  0  0  0  0  0  0  0  0
    0.0000    0.0000    0.0000 C   0  0  0  0  0  0  0  0  0  0  0  0
    0.0000    0.0000    0.0000 N   0  0  0  0  0  0  0  0  0  0  0  0
  1  2  1  0
  2  3  1  0
  3  4  1  0
  4  5  1  0
  5  6  1  0
  6  7  1  0
  5  8  1  0
  8  9  2  0
  9 10  1  0
 10 11  1  0
 11 12  1  0
 12 13  2  0
 13 14  1  0
 14 15  2  0
 15 16  1  0
 16 17  2  0
 15 18  1  0
 18 19  2  0
 18 20  1  0
 18 21  1  0
 10 22  2  0
 22 23  1  0
 23 24  2  0
 24 25  1  0
 25 26  1  0
 26 27  2  0
 27 28  1  0
 28 29  2  0
 29 30  1  0
 29 31  1  0
 31 32  2  0
 32 33  1  0
 33 34  2  0
 34 35  1  0
 25 36  1  0
 36 37  2  0
  7  2  1  0
 37  8  1  0
 17 12  1  0
 36 22  1  0
 34 28  1  0
M  END
>  <pIC50>  (158) 
8.17

>  <ChEMBL_ID>  (158) 
CHEMBL509941

>  <document_journal>  (158) 
Bioorg. Med. Chem. Lett.

>  <bao_endpoint>  (158) 
BAO_0000190

>  <potential_duplicate>  (158) 
False

>  <uo_units>  (158) 
UO_0000065

>  <canonical_smiles>  (158) 
CN1CCN(CC1)c2nc(Nc3ccc(cc3)P(=O)(C)C)c4ncn(\C=C\c5c(C)cccc5C)c4n2

>  <parent_molecule_chembl_id>  (158) 
CHEMBL509941

>  <assay_type>  (158) 
B

>  <src_id>  (158) 
1

>  <ligand_efficiency>  (158) 
{u'le': u'0.3', u'bei': u'15.84', u'sei': u'9.18', u'lle': u'2.98'}

>  <standard_flag>  (158) 
True

>  <molecule_chembl_id>  (158) 
CHEMBL509941

>  <target_organism>  (158) 
Homo sapiens

>  <standard_units>  (158) 
nM

>  <record_id>  (158) 
722013

>  <document_chembl_id>  (158) 
CHEMBL1139396

>  <bao_format>  (158) 
BAO_0000357

>  <data_validity_description>  (158) 
None

>  <activity_id>  (158) 
2238233

>  <standard_type>  (158) 
IC50

>  <target_chembl_id>  (158) 
CHEMBL1862

>  <data_validity_comment>  (158) 
None

>  <published_value>  (158) 
6.8

>  <document_year>  (158) 
2008

>  <target_pref_name>  (158) 
Tyrosine-protein kinase ABL

>  <assay_chembl_id>  (158) 
CHEMBL976275

>  <standard_relation>  (158) 
=

>  <assay_description>  (158) 
Inhibition of Abl kinase

>  <published_relation>  (158) 
=

>  <standard_value>  (158) 
6.8

>  <qudt_units>  (158) 
http://www.openphacts.org/units/Nanomolar

>  <target_tax_id>  (158) 
9606

>  <bao_label>  (158) 
single protein format

>  <published_units>  (158) 
nM

>  <pchembl_value>  (158) 
8.17

>  <published_type>  (158) 
IC50

>  <activity_comment>  (158) 
None

$$$$

     RDKit          

 36 40  0  0  0  0  0  0  0  0999 V2000
    0.0000    0.0000    0.0000 C   0  0  0  0  0  0  0  0  0  0  0  0
    0.0000    0.0000    0.0000 C   0  0  0  0  0  0  0  0  0  0  0  0
    0.0000    0.0000    0.0000 C   0  0  0  0  0  0  0  0  0  0  0  0
    0.0000    0.0000    0.0000 C   0  0  0  0  0  0  0  0  0  0  0  0
    0.0000    0.0000    0.0000 C   0  0  0  0  0  0  0  0  0  0  0  0
    0.0000    0.0000    0.0000 C   0  0  0  0  0  0  0  0  0  0  0  0
    0.0000    0.0000    0.0000 C   0  0  0  0  0  0  0  0  0  0  0  0
    0.0000    0.0000    0.0000 C   0  0  0  0  0  0  0  0  0  0  0  0
    0.0000    0.0000    0.0000 C   0  0  0  0  0  0  0  0  0  0  0  0
    0.0000    0.0000    0.0000 C   0  0  0  0  0  0  0  0  0  0  0  0
    0.0000    0.0000    0.0000 N   0  0  0  0  0  0  0  0  0  0  0  0
    0.0000    0.0000    0.0000 C   0  0  0  0  0  0  0  0  0  0  0  0
    0.0000    0.0000    0.0000 N   0  0  0  0  0  0  0  0  0  0  0  0
    0.0000    0.0000    0.0000 C   0  0  0  0  0  0  0  0  0  0  0  0
    0.0000    0.0000    0.0000 C   0  0  0  0  0  0  0  0  0  0  0  0
    0.0000    0.0000    0.0000 N   0  0  0  0  0  0  0  0  0  0  0  0
    0.0000    0.0000    0.0000 C   0  0  0  0  0  0  0  0  0  0  0  0
    0.0000    0.0000    0.0000 C   0  0  0  0  0  0  0  0  0  0  0  0
    0.0000    0.0000    0.0000 C   0  0  0  0  0  0  0  0  0  0  0  0
    0.0000    0.0000    0.0000 C   0  0  0  0  0  0  0  0  0  0  0  0
    0.0000    0.0000    0.0000 C   0  0  0  0  0  0  0  0  0  0  0  0
    0.0000    0.0000    0.0000 C   0  0  0  0  0  0  0  0  0  0  0  0
    0.0000    0.0000    0.0000 P   0  0  0  0  0  0  0  0  0  0  0  0
    0.0000    0.0000    0.0000 O   0  0  0  0  0  0  0  0  0  0  0  0
    0.0000    0.0000    0.0000 C   0  0  0  0  0  0  0  0  0  0  0  0
    0.0000    0.0000    0.0000 C   0  0  0  0  0  0  0  0  0  0  0  0
    0.0000    0.0000    0.0000 N   0  0  0  0  0  0  0  0  0  0  0  0
    0.0000    0.0000    0.0000 C   0  0  0  0  0  0  0  0  0  0  0  0
    0.0000    0.0000    0.0000 N   0  0  0  0  0  0  0  0  0  0  0  0
    0.0000    0.0000    0.0000 C   0  0  0  0  0  0  0  0  0  0  0  0
    0.0000    0.0000    0.0000 N   0  0  0  0  0  0  0  0  0  0  0  0
    0.0000    0.0000    0.0000 C   0  0  0  0  0  0  0  0  0  0  0  0
    0.0000    0.0000    0.0000 C   0  0  0  0  0  0  0  0  0  0  0  0
    0.0000    0.0000    0.0000 O   0  0  0  0  0  0  0  0  0  0  0  0
    0.0000    0.0000    0.0000 C   0  0  0  0  0  0  0  0  0  0  0  0
    0.0000    0.0000    0.0000 C   0  0  0  0  0  0  0  0  0  0  0  0
  1  2  1  0
  2  3  2  0
  3  4  1  0
  4  5  2  0
  5  6  1  0
  6  7  1  0
  6  8  2  0
  8  9  1  0
  9 10  2  0
 10 11  1  0
 11 12  1  0
 12 13  2  0
 13 14  1  0
 14 15  2  0
 15 16  1  0
 16 17  1  0
 17 18  2  0
 18 19  1  0
 19 20  2  0
 20 21  1  0
 21 22  2  0
 20 23  1  0
 23 24  2  0
 23 25  1  0
 23 26  1  0
 15 27  1  0
 27 28  2  0
 28 29  1  0
 29 30  2  0
 28 31  1  0
 31 32  1  0
 32 33  1  0
 33 34  1  0
 34 35  1  0
 35 36  1  0
  8  2  1  0
 30 11  1  0
 30 14  1  0
 22 17  1  0
 36 31  1  0
M  END
>  <pIC50>  (159) 
8.52

>  <ChEMBL_ID>  (159) 
CHEMBL454358

>  <document_journal>  (159) 
Bioorg. Med. Chem. Lett.

>  <bao_endpoint>  (159) 
BAO_0000190

>  <potential_duplicate>  (159) 
False

>  <uo_units>  (159) 
UO_0000065

>  <canonical_smiles>  (159) 
Cc1cccc(C)c1\C=C\n2cnc3c(Nc4ccc(cc4)P(=O)(C)C)nc(nc23)N5CCOCC5

>  <parent_molecule_chembl_id>  (159) 
CHEMBL454358

>  <assay_type>  (159) 
B

>  <src_id>  (159) 
1

>  <ligand_efficiency>  (159) 
{u'le': u'0.32', u'bei': u'16.95', u'sei': u'8.97', u'lle': u'3.6'}

>  <standard_flag>  (159) 
True

>  <molecule_chembl_id>  (159) 
CHEMBL454358

>  <target_organism>  (159) 
Homo sapiens

>  <standard_units>  (159) 
nM

>  <record_id>  (159) 
722012

>  <document_chembl_id>  (159) 
CHEMBL1139396

>  <bao_format>  (159) 
BAO_0000357

>  <data_validity_description>  (159) 
None

>  <activity_id>  (159) 
2238234

>  <standard_type>  (159) 
IC50

>  <target_chembl_id>  (159) 
CHEMBL1862

>  <data_validity_comment>  (159) 
None

>  <published_value>  (159) 
3.02

>  <document_year>  (159) 
2008

>  <target_pref_name>  (159) 
Tyrosine-protein kinase ABL

>  <assay_chembl_id>  (159) 
CHEMBL976275

>  <standard_relation>  (159) 
=

>  <assay_description>  (159) 
Inhibition of Abl kinase

>  <published_relation>  (159) 
=

>  <standard_value>  (159) 
3.02

>  <qudt_units>  (159) 
http://www.openphacts.org/units/Nanomolar

>  <target_tax_id>  (159) 
9606

>  <bao_label>  (159) 
single protein format

>  <published_units>  (159) 
nM

>  <pchembl_value>  (159) 
8.52

>  <published_type>  (159) 
IC50

>  <activity_comment>  (159) 
None

$$$$

     RDKit          

 35 39  0  0  0  0  0  0  0  0999 V2000
    0.0000    0.0000    0.0000 C   0  0  0  0  0  0  0  0  0  0  0  0
    0.0000    0.0000    0.0000 C   0  0  0  0  0  0  0  0  0  0  0  0
    0.0000    0.0000    0.0000 C   0  0  0  0  0  0  0  0  0  0  0  0
    0.0000    0.0000    0.0000 C   0  0  0  0  0  0  0  0  0  0  0  0
    0.0000    0.0000    0.0000 C   0  0  0  0  0  0  0  0  0  0  0  0
    0.0000    0.0000    0.0000 C   0  0  0  0  0  0  0  0  0  0  0  0
    0.0000    0.0000    0.0000 C   0  0  0  0  0  0  0  0  0  0  0  0
    0.0000    0.0000    0.0000 C   0  0  0  0  0  0  0  0  0  0  0  0
    0.0000    0.0000    0.0000 C   0  0  0  0  0  0  0  0  0  0  0  0
    0.0000    0.0000    0.0000 C   0  0  0  0  0  0  0  0  0  0  0  0
    0.0000    0.0000    0.0000 N   0  0  0  0  0  0  0  0  0  0  0  0
    0.0000    0.0000    0.0000 C   0  0  0  0  0  0  0  0  0  0  0  0
    0.0000    0.0000    0.0000 N   0  0  0  0  0  0  0  0  0  0  0  0
    0.0000    0.0000    0.0000 C   0  0  0  0  0  0  0  0  0  0  0  0
    0.0000    0.0000    0.0000 C   0  0  0  0  0  0  0  0  0  0  0  0
    0.0000    0.0000    0.0000 N   0  0  0  0  0  0  0  0  0  0  0  0
    0.0000    0.0000    0.0000 C   0  0  0  0  0  0  0  0  0  0  0  0
    0.0000    0.0000    0.0000 C   0  0  0  0  0  0  0  0  0  0  0  0
    0.0000    0.0000    0.0000 C   0  0  0  0  0  0  0  0  0  0  0  0
    0.0000    0.0000    0.0000 C   0  0  0  0  0  0  0  0  0  0  0  0
    0.0000    0.0000    0.0000 C   0  0  0  0  0  0  0  0  0  0  0  0
    0.0000    0.0000    0.0000 C   0  0  0  0  0  0  0  0  0  0  0  0
    0.0000    0.0000    0.0000 P   0  0  0  0  0  0  0  0  0  0  0  0
    0.0000    0.0000    0.0000 O   0  0  0  0  0  0  0  0  0  0  0  0
    0.0000    0.0000    0.0000 C   0  0  0  0  0  0  0  0  0  0  0  0
    0.0000    0.0000    0.0000 C   0  0  0  0  0  0  0  0  0  0  0  0
    0.0000    0.0000    0.0000 N   0  0  0  0  0  0  0  0  0  0  0  0
    0.0000    0.0000    0.0000 C   0  0  0  0  0  0  0  0  0  0  0  0
    0.0000    0.0000    0.0000 N   0  0  0  0  0  0  0  0  0  0  0  0
    0.0000    0.0000    0.0000 C   0  0  0  0  0  0  0  0  0  0  0  0
    0.0000    0.0000    0.0000 N   0  0  0  0  0  0  0  0  0  0  0  0
    0.0000    0.0000    0.0000 C   0  0  0  0  0  0  0  0  0  0  0  0
    0.0000    0.0000    0.0000 C   0  0  0  0  0  0  0  0  0  0  0  0
    0.0000    0.0000    0.0000 C   0  0  0  0  0  0  0  0  0  0  0  0
    0.0000    0.0000    0.0000 C   0  0  0  0  0  0  0  0  0  0  0  0
  1  2  1  0
  2  3  2  0
  3  4  1  0
  4  5  2  0
  5  6  1  0
  6  7  1  0
  6  8  2  0
  8  9  1  0
  9 10  2  0
 10 11  1  0
 11 12  1  0
 12 13  2  0
 13 14  1  0
 14 15  2  0
 15 16  1  0
 16 17  1  0
 17 18  2  0
 18 19  1  0
 19 20  2  0
 20 21  1  0
 21 22  2  0
 20 23  1  0
 23 24  2  0
 23 25  1  0
 23 26  1  0
 15 27  1  0
 27 28  2  0
 28 29  1  0
 29 30  2  0
 28 31  1  0
 31 32  1  0
 32 33  1  0
 33 34  1  0
 34 35  1  0
  8  2  1  0
 30 11  1  0
 30 14  1  0
 22 17  1  0
 35 31  1  0
M  END
>  <pIC50>  (160) 
7.71

>  <ChEMBL_ID>  (160) 
CHEMBL451790

>  <document_journal>  (160) 
Bioorg. Med. Chem. Lett.

>  <bao_endpoint>  (160) 
BAO_0000190

>  <potential_duplicate>  (160) 
False

>  <uo_units>  (160) 
UO_0000065

>  <canonical_smiles>  (160) 
Cc1cccc(C)c1\C=C\n2cnc3c(Nc4ccc(cc4)P(=O)(C)C)nc(nc23)N5CCCC5

>  <parent_molecule_chembl_id>  (160) 
CHEMBL451790

>  <assay_type>  (160) 
B

>  <src_id>  (160) 
1

>  <ligand_efficiency>  (160) 
{u'le': u'0.3', u'bei': u'15.85', u'sei': u'8.99', u'lle': u'2.02'}

>  <standard_flag>  (160) 
True

>  <molecule_chembl_id>  (160) 
CHEMBL451790

>  <target_organism>  (160) 
Homo sapiens

>  <standard_units>  (160) 
nM

>  <record_id>  (160) 
721938

>  <document_chembl_id>  (160) 
CHEMBL1139396

>  <bao_format>  (160) 
BAO_0000357

>  <data_validity_description>  (160) 
None

>  <activity_id>  (160) 
2238235

>  <standard_type>  (160) 
IC50

>  <target_chembl_id>  (160) 
CHEMBL1862

>  <data_validity_comment>  (160) 
None

>  <published_value>  (160) 
19.5

>  <document_year>  (160) 
2008

>  <target_pref_name>  (160) 
Tyrosine-protein kinase ABL

>  <assay_chembl_id>  (160) 
CHEMBL976275

>  <standard_relation>  (160) 
=

>  <assay_description>  (160) 
Inhibition of Abl kinase

>  <published_relation>  (160) 
=

>  <standard_value>  (160) 
19.5

>  <qudt_units>  (160) 
http://www.openphacts.org/units/Nanomolar

>  <target_tax_id>  (160) 
9606

>  <bao_label>  (160) 
single protein format

>  <published_units>  (160) 
nM

>  <pchembl_value>  (160) 
7.71

>  <published_type>  (160) 
IC50

>  <activity_comment>  (160) 
None

$$$$

     RDKit          

 33 36  0  0  0  0  0  0  0  0999 V2000
    0.0000    0.0000    0.0000 C   0  0  0  0  0  0  0  0  0  0  0  0
    0.0000    0.0000    0.0000 N   0  0  0  0  0  0  0  0  0  0  0  0
    0.0000    0.0000    0.0000 C   0  0  0  0  0  0  0  0  0  0  0  0
    0.0000    0.0000    0.0000 C   0  0  0  0  0  0  0  0  0  0  0  0
    0.0000    0.0000    0.0000 N   0  0  0  0  0  0  0  0  0  0  0  0
    0.0000    0.0000    0.0000 C   0  0  0  0  0  0  0  0  0  0  0  0
    0.0000    0.0000    0.0000 N   0  0  0  0  0  0  0  0  0  0  0  0
    0.0000    0.0000    0.0000 C   0  0  0  0  0  0  0  0  0  0  0  0
    0.0000    0.0000    0.0000 C   0  0  0  0  0  0  0  0  0  0  0  0
    0.0000    0.0000    0.0000 C   0  0  0  0  0  0  0  0  0  0  0  0
    0.0000    0.0000    0.0000 C   0  0  0  0  0  0  0  0  0  0  0  0
    0.0000    0.0000    0.0000 C   0  0  0  0  0  0  0  0  0  0  0  0
    0.0000    0.0000    0.0000 C   0  0  0  0  0  0  0  0  0  0  0  0
    0.0000    0.0000    0.0000 P   0  0  0  0  0  0  0  0  0  0  0  0
    0.0000    0.0000    0.0000 O   0  0  0  0  0  0  0  0  0  0  0  0
    0.0000    0.0000    0.0000 C   0  0  0  0  0  0  0  0  0  0  0  0
    0.0000    0.0000    0.0000 C   0  0  0  0  0  0  0  0  0  0  0  0
    0.0000    0.0000    0.0000 C   0  0  0  0  0  0  0  0  0  0  0  0
    0.0000    0.0000    0.0000 N   0  0  0  0  0  0  0  0  0  0  0  0
    0.0000    0.0000    0.0000 C   0  0  0  0  0  0  0  0  0  0  0  0
    0.0000    0.0000    0.0000 N   0  0  0  0  0  0  0  0  0  0  0  0
    0.0000    0.0000    0.0000 C   0  0  0  0  0  0  0  0  0  0  0  0
    0.0000    0.0000    0.0000 C   0  0  0  0  0  0  0  0  0  0  0  0
    0.0000    0.0000    0.0000 C   0  0  0  0  0  0  0  0  0  0  0  0
    0.0000    0.0000    0.0000 C   0  0  0  0  0  0  0  0  0  0  0  0
    0.0000    0.0000    0.0000 C   0  0  0  0  0  0  0  0  0  0  0  0
    0.0000    0.0000    0.0000 C   0  0  0  0  0  0  0  0  0  0  0  0
    0.0000    0.0000    0.0000 C   0  0  0  0  0  0  0  0  0  0  0  0
    0.0000    0.0000    0.0000 C   0  0  0  0  0  0  0  0  0  0  0  0
    0.0000    0.0000    0.0000 C   0  0  0  0  0  0  0  0  0  0  0  0
    0.0000    0.0000    0.0000 C   0  0  0  0  0  0  0  0  0  0  0  0
    0.0000    0.0000    0.0000 C   0  0  0  0  0  0  0  0  0  0  0  0
    0.0000    0.0000    0.0000 N   0  0  0  0  0  0  0  0  0  0  0  0
  1  2  1  0
  2  3  1  0
  2  4  1  0
  4  5  2  0
  5  6  1  0
  6  7  1  0
  7  8  1  0
  8  9  2  0
  9 10  1  0
 10 11  2  0
 11 12  1  0
 12 13  2  0
 11 14  1  0
 14 15  2  0
 14 16  1  0
 14 17  1  0
  6 18  2  0
 18 19  1  0
 19 20  2  0
 20 21  1  0
 21 22  1  0
 22 23  2  0
 23 24  1  0
 24 25  2  0
 25 26  1  0
 25 27  1  0
 27 28  2  0
 28 29  1  0
 29 30  2  0
 30 31  1  0
 21 32  1  0
 32 33  2  0
 33  4  1  0
 13  8  1  0
 32 18  1  0
 30 24  1  0
M  END
>  <pIC50>  (161) 
7.75

>  <ChEMBL_ID>  (161) 
CHEMBL454873

>  <document_journal>  (161) 
Bioorg. Med. Chem. Lett.

>  <bao_endpoint>  (161) 
BAO_0000190

>  <potential_duplicate>  (161) 
False

>  <uo_units>  (161) 
UO_0000065

>  <canonical_smiles>  (161) 
CN(C)c1nc(Nc2ccc(cc2)P(=O)(C)C)c3ncn(\C=C\c4c(C)cccc4C)c3n1

>  <parent_molecule_chembl_id>  (161) 
CHEMBL454873

>  <assay_type>  (161) 
B

>  <src_id>  (161) 
1

>  <ligand_efficiency>  (161) 
{u'le': u'0.32', u'bei': u'16.84', u'sei': u'9.04', u'lle': u'2.52'}

>  <standard_flag>  (161) 
True

>  <molecule_chembl_id>  (161) 
CHEMBL454873

>  <target_organism>  (161) 
Homo sapiens

>  <standard_units>  (161) 
nM

>  <record_id>  (161) 
721937

>  <document_chembl_id>  (161) 
CHEMBL1139396

>  <bao_format>  (161) 
BAO_0000357

>  <data_validity_description>  (161) 
None

>  <activity_id>  (161) 
2238236

>  <standard_type>  (161) 
IC50

>  <target_chembl_id>  (161) 
CHEMBL1862

>  <data_validity_comment>  (161) 
None

>  <published_value>  (161) 
17.6

>  <document_year>  (161) 
2008

>  <target_pref_name>  (161) 
Tyrosine-protein kinase ABL

>  <assay_chembl_id>  (161) 
CHEMBL976275

>  <standard_relation>  (161) 
=

>  <assay_description>  (161) 
Inhibition of Abl kinase

>  <published_relation>  (161) 
=

>  <standard_value>  (161) 
17.6

>  <qudt_units>  (161) 
http://www.openphacts.org/units/Nanomolar

>  <target_tax_id>  (161) 
9606

>  <bao_label>  (161) 
single protein format

>  <published_units>  (161) 
nM

>  <pchembl_value>  (161) 
7.75

>  <published_type>  (161) 
IC50

>  <activity_comment>  (161) 
None

$$$$

     RDKit          

 34 37  0  0  0  0  0  0  0  0999 V2000
    0.0000    0.0000    0.0000 C   0  0  0  0  0  0  0  0  0  0  0  0
    0.0000    0.0000    0.0000 C   0  0  0  0  0  0  0  0  0  0  0  0
    0.0000    0.0000    0.0000 C   0  0  0  0  0  0  0  0  0  0  0  0
    0.0000    0.0000    0.0000 P   0  0  0  0  0  0  0  0  0  0  0  0
    0.0000    0.0000    0.0000 O   0  0  0  0  0  0  0  0  0  0  0  0
    0.0000    0.0000    0.0000 C   0  0  0  0  0  0  0  0  0  0  0  0
    0.0000    0.0000    0.0000 C   0  0  0  0  0  0  0  0  0  0  0  0
    0.0000    0.0000    0.0000 C   0  0  0  0  0  0  0  0  0  0  0  0
    0.0000    0.0000    0.0000 C   0  0  0  0  0  0  0  0  0  0  0  0
    0.0000    0.0000    0.0000 C   0  0  0  0  0  0  0  0  0  0  0  0
    0.0000    0.0000    0.0000 C   0  0  0  0  0  0  0  0  0  0  0  0
    0.0000    0.0000    0.0000 C   0  0  0  0  0  0  0  0  0  0  0  0
    0.0000    0.0000    0.0000 N   0  0  0  0  0  0  0  0  0  0  0  0
    0.0000    0.0000    0.0000 C   0  0  0  0  0  0  0  0  0  0  0  0
    0.0000    0.0000    0.0000 N   0  0  0  0  0  0  0  0  0  0  0  0
    0.0000    0.0000    0.0000 C   0  0  0  0  0  0  0  0  0  0  0  0
    0.0000    0.0000    0.0000 N   0  0  0  0  0  0  0  0  0  0  0  0
    0.0000    0.0000    0.0000 C   0  0  0  0  0  0  0  0  0  0  0  0
    0.0000    0.0000    0.0000 C   0  0  0  0  0  0  0  0  0  0  0  0
    0.0000    0.0000    0.0000 N   0  0  0  0  0  0  0  0  0  0  0  0
    0.0000    0.0000    0.0000 C   0  0  0  0  0  0  0  0  0  0  0  0
    0.0000    0.0000    0.0000 N   0  0  0  0  0  0  0  0  0  0  0  0
    0.0000    0.0000    0.0000 C   0  0  0  0  0  0  0  0  0  0  0  0
    0.0000    0.0000    0.0000 C   0  0  0  0  0  0  0  0  0  0  0  0
    0.0000    0.0000    0.0000 C   0  0  0  0  0  0  0  0  0  0  0  0
    0.0000    0.0000    0.0000 C   0  0  0  0  0  0  0  0  0  0  0  0
    0.0000    0.0000    0.0000 C   0  0  0  0  0  0  0  0  0  0  0  0
    0.0000    0.0000    0.0000 C   0  0  0  0  0  0  0  0  0  0  0  0
    0.0000    0.0000    0.0000 C   0  0  0  0  0  0  0  0  0  0  0  0
    0.0000    0.0000    0.0000 C   0  0  0  0  0  0  0  0  0  0  0  0
    0.0000    0.0000    0.0000 C   0  0  0  0  0  0  0  0  0  0  0  0
    0.0000    0.0000    0.0000 C   0  0  0  0  0  0  0  0  0  0  0  0
    0.0000    0.0000    0.0000 C   0  0  0  0  0  0  0  0  0  0  0  0
    0.0000    0.0000    0.0000 C   0  0  0  0  0  0  0  0  0  0  0  0
  1  2  1  0
  2  3  1  0
  3  4  1  0
  4  5  2  0
  4  6  1  0
  6  7  1  0
  7  8  1  0
  4  9  1  0
  9 10  2  0
 10 11  1  0
 11 12  2  0
 12 13  1  0
 13 14  1  0
 14 15  2  0
 15 16  1  0
 16 17  2  0
 17 18  1  0
 18 19  2  0
 19 20  1  0
 20 21  2  0
 21 22  1  0
 22 23  1  0
 23 24  2  0
 24 25  1  0
 25 26  2  0
 26 27  1  0
 26 28  1  0
 28 29  2  0
 29 30  1  0
 30 31  2  0
 31 32  1  0
 12 33  1  0
 33 34  2  0
 34  9  1  0
 19 14  1  0
 22 18  1  0
 31 25  1  0
M  END
>  <pIC50>  (162) 
7.76

>  <ChEMBL_ID>  (162) 
CHEMBL454872

>  <document_journal>  (162) 
Bioorg. Med. Chem. Lett.

>  <bao_endpoint>  (162) 
BAO_0000190

>  <potential_duplicate>  (162) 
False

>  <uo_units>  (162) 
UO_0000065

>  <canonical_smiles>  (162) 
CCCP(=O)(CCC)c1ccc(Nc2ncnc3c2ncn3\C=C\c4c(C)cccc4C)cc1

>  <parent_molecule_chembl_id>  (162) 
CHEMBL454872

>  <assay_type>  (162) 
B

>  <src_id>  (162) 
1

>  <ligand_efficiency>  (162) 
{u'le': u'0.31', u'bei': u'16.39', u'sei': u'9.41', u'lle': u'1.47'}

>  <standard_flag>  (162) 
True

>  <molecule_chembl_id>  (162) 
CHEMBL454872

>  <target_organism>  (162) 
Homo sapiens

>  <standard_units>  (162) 
nM

>  <record_id>  (162) 
721936

>  <document_chembl_id>  (162) 
CHEMBL1139396

>  <bao_format>  (162) 
BAO_0000357

>  <data_validity_description>  (162) 
None

>  <activity_id>  (162) 
2238237

>  <standard_type>  (162) 
IC50

>  <target_chembl_id>  (162) 
CHEMBL1862

>  <data_validity_comment>  (162) 
None

>  <published_value>  (162) 
17.3

>  <document_year>  (162) 
2008

>  <target_pref_name>  (162) 
Tyrosine-protein kinase ABL

>  <assay_chembl_id>  (162) 
CHEMBL976275

>  <standard_relation>  (162) 
=

>  <assay_description>  (162) 
Inhibition of Abl kinase

>  <published_relation>  (162) 
=

>  <standard_value>  (162) 
17.3

>  <qudt_units>  (162) 
http://www.openphacts.org/units/Nanomolar

>  <target_tax_id>  (162) 
9606

>  <bao_label>  (162) 
single protein format

>  <published_units>  (162) 
nM

>  <pchembl_value>  (162) 
7.76

>  <published_type>  (162) 
IC50

>  <activity_comment>  (162) 
None

$$$$

     RDKit          

 31 35  0  0  0  0  0  0  0  0999 V2000
    0.0000    0.0000    0.0000 C   0  0  0  0  0  0  0  0  0  0  0  0
    0.0000    0.0000    0.0000 P   0  0  0  0  0  0  0  0  0  0  0  0
    0.0000    0.0000    0.0000 O   0  0  0  0  0  0  0  0  0  0  0  0
    0.0000    0.0000    0.0000 C   0  0  0  0  0  0  0  0  0  0  0  0
    0.0000    0.0000    0.0000 C   0  0  0  0  0  0  0  0  0  0  0  0
    0.0000    0.0000    0.0000 C   0  0  0  0  0  0  0  0  0  0  0  0
    0.0000    0.0000    0.0000 C   0  0  0  0  0  0  0  0  0  0  0  0
    0.0000    0.0000    0.0000 C   0  0  0  0  0  0  0  0  0  0  0  0
    0.0000    0.0000    0.0000 N   0  0  0  0  0  0  0  0  0  0  0  0
    0.0000    0.0000    0.0000 C   0  0  0  0  0  0  0  0  0  0  0  0
    0.0000    0.0000    0.0000 N   0  0  0  0  0  0  0  0  0  0  0  0
    0.0000    0.0000    0.0000 C   0  0  0  0  0  0  0  0  0  0  0  0
    0.0000    0.0000    0.0000 N   0  0  0  0  0  0  0  0  0  0  0  0
    0.0000    0.0000    0.0000 C   0  0  0  0  0  0  0  0  0  0  0  0
    0.0000    0.0000    0.0000 C   0  0  0  0  0  0  0  0  0  0  0  0
    0.0000    0.0000    0.0000 N   0  0  0  0  0  0  0  0  0  0  0  0
    0.0000    0.0000    0.0000 C   0  0  0  0  0  0  0  0  0  0  0  0
    0.0000    0.0000    0.0000 N   0  0  0  0  0  0  0  0  0  0  0  0
    0.0000    0.0000    0.0000 C   0  0  0  0  0  0  0  0  0  0  0  0
    0.0000    0.0000    0.0000 C   0  0  0  0  0  0  0  0  0  0  0  0
    0.0000    0.0000    0.0000 C   0  0  0  0  0  0  0  0  0  0  0  0
    0.0000    0.0000    0.0000 C   0  0  0  0  0  0  0  0  0  0  0  0
    0.0000    0.0000    0.0000 C   0  0  0  0  0  0  0  0  0  0  0  0
    0.0000    0.0000    0.0000 C   0  0  0  0  0  0  0  0  0  0  0  0
    0.0000    0.0000    0.0000 C   0  0  0  0  0  0  0  0  0  0  0  0
    0.0000    0.0000    0.0000 N   0  0  0  0  0  0  0  0  0  0  0  0
    0.0000    0.0000    0.0000 N   0  0  0  0  0  0  0  0  0  0  0  0
    0.0000    0.0000    0.0000 C   0  0  0  0  0  0  0  0  0  0  0  0
    0.0000    0.0000    0.0000 C   0  0  0  0  0  0  0  0  0  0  0  0
    0.0000    0.0000    0.0000 C   0  0  0  0  0  0  0  0  0  0  0  0
    0.0000    0.0000    0.0000 C   0  0  0  0  0  0  0  0  0  0  0  0
  1  2  1  0
  2  3  2  0
  2  4  1  0
  2  5  1  0
  5  6  2  0
  6  7  1  0
  7  8  2  0
  8  9  1  0
  9 10  1  0
 10 11  2  0
 11 12  1  0
 12 13  2  0
 13 14  1  0
 14 15  2  0
 15 16  1  0
 16 17  2  0
 17 18  1  0
 18 19  1  0
 19 20  2  0
 20 21  1  0
 21 22  2  0
 22 23  1  0
 23 24  2  0
 24 25  1  0
 25 26  1  0
 26 27  1  0
 27 28  2  0
 28 29  1  0
  8 30  1  0
 30 31  2  0
 31  5  1  0
 15 10  1  0
 18 14  1  0
 29 21  1  0
 29 25  2  0
M  END
>  <pIC50>  (163) 
8.63

>  <ChEMBL_ID>  (163) 
CHEMBL452563

>  <document_journal>  (163) 
Bioorg. Med. Chem. Lett.

>  <bao_endpoint>  (163) 
BAO_0000190

>  <potential_duplicate>  (163) 
False

>  <uo_units>  (163) 
UO_0000065

>  <canonical_smiles>  (163) 
CP(=O)(C)c1ccc(Nc2ncnc3c2ncn3\C=C\c4cccc5[nH]ncc45)cc1

>  <parent_molecule_chembl_id>  (163) 
CHEMBL452563

>  <assay_type>  (163) 
B

>  <src_id>  (163) 
1

>  <ligand_efficiency>  (163) 
{u'le': u'0.38', u'bei': u'20.09', u'sei': u'7.76', u'lle': u'5.41'}

>  <standard_flag>  (163) 
True

>  <molecule_chembl_id>  (163) 
CHEMBL452563

>  <target_organism>  (163) 
Homo sapiens

>  <standard_units>  (163) 
nM

>  <record_id>  (163) 
721854

>  <document_chembl_id>  (163) 
CHEMBL1139396

>  <bao_format>  (163) 
BAO_0000357

>  <data_validity_description>  (163) 
None

>  <activity_id>  (163) 
2238239

>  <standard_type>  (163) 
IC50

>  <target_chembl_id>  (163) 
CHEMBL1862

>  <data_validity_comment>  (163) 
None

>  <published_value>  (163) 
2.36

>  <document_year>  (163) 
2008

>  <target_pref_name>  (163) 
Tyrosine-protein kinase ABL

>  <assay_chembl_id>  (163) 
CHEMBL976275

>  <standard_relation>  (163) 
=

>  <assay_description>  (163) 
Inhibition of Abl kinase

>  <published_relation>  (163) 
=

>  <standard_value>  (163) 
2.36

>  <qudt_units>  (163) 
http://www.openphacts.org/units/Nanomolar

>  <target_tax_id>  (163) 
9606

>  <bao_label>  (163) 
single protein format

>  <published_units>  (163) 
nM

>  <pchembl_value>  (163) 
8.63

>  <published_type>  (163) 
IC50

>  <activity_comment>  (163) 
None

$$$$

     RDKit          

 31 35  0  0  0  0  0  0  0  0999 V2000
    0.0000    0.0000    0.0000 C   0  0  0  0  0  0  0  0  0  0  0  0
    0.0000    0.0000    0.0000 P   0  0  0  0  0  0  0  0  0  0  0  0
    0.0000    0.0000    0.0000 O   0  0  0  0  0  0  0  0  0  0  0  0
    0.0000    0.0000    0.0000 C   0  0  0  0  0  0  0  0  0  0  0  0
    0.0000    0.0000    0.0000 C   0  0  0  0  0  0  0  0  0  0  0  0
    0.0000    0.0000    0.0000 C   0  0  0  0  0  0  0  0  0  0  0  0
    0.0000    0.0000    0.0000 C   0  0  0  0  0  0  0  0  0  0  0  0
    0.0000    0.0000    0.0000 C   0  0  0  0  0  0  0  0  0  0  0  0
    0.0000    0.0000    0.0000 N   0  0  0  0  0  0  0  0  0  0  0  0
    0.0000    0.0000    0.0000 C   0  0  0  0  0  0  0  0  0  0  0  0
    0.0000    0.0000    0.0000 N   0  0  0  0  0  0  0  0  0  0  0  0
    0.0000    0.0000    0.0000 C   0  0  0  0  0  0  0  0  0  0  0  0
    0.0000    0.0000    0.0000 N   0  0  0  0  0  0  0  0  0  0  0  0
    0.0000    0.0000    0.0000 C   0  0  0  0  0  0  0  0  0  0  0  0
    0.0000    0.0000    0.0000 C   0  0  0  0  0  0  0  0  0  0  0  0
    0.0000    0.0000    0.0000 N   0  0  0  0  0  0  0  0  0  0  0  0
    0.0000    0.0000    0.0000 C   0  0  0  0  0  0  0  0  0  0  0  0
    0.0000    0.0000    0.0000 N   0  0  0  0  0  0  0  0  0  0  0  0
    0.0000    0.0000    0.0000 C   0  0  0  0  0  0  0  0  0  0  0  0
    0.0000    0.0000    0.0000 C   0  0  0  0  0  0  0  0  0  0  0  0
    0.0000    0.0000    0.0000 C   0  0  0  0  0  0  0  0  0  0  0  0
    0.0000    0.0000    0.0000 C   0  0  0  0  0  0  0  0  0  0  0  0
    0.0000    0.0000    0.0000 C   0  0  0  0  0  0  0  0  0  0  0  0
    0.0000    0.0000    0.0000 C   0  0  0  0  0  0  0  0  0  0  0  0
    0.0000    0.0000    0.0000 C   0  0  0  0  0  0  0  0  0  0  0  0
    0.0000    0.0000    0.0000 N   0  0  0  0  0  0  0  0  0  0  0  0
    0.0000    0.0000    0.0000 C   0  0  0  0  0  0  0  0  0  0  0  0
    0.0000    0.0000    0.0000 C   0  0  0  0  0  0  0  0  0  0  0  0
    0.0000    0.0000    0.0000 C   0  0  0  0  0  0  0  0  0  0  0  0
    0.0000    0.0000    0.0000 C   0  0  0  0  0  0  0  0  0  0  0  0
    0.0000    0.0000    0.0000 C   0  0  0  0  0  0  0  0  0  0  0  0
  1  2  1  0
  2  3  2  0
  2  4  1  0
  2  5  1  0
  5  6  2  0
  6  7  1  0
  7  8  2  0
  8  9  1  0
  9 10  1  0
 10 11  2  0
 11 12  1  0
 12 13  2  0
 13 14  1  0
 14 15  2  0
 15 16  1  0
 16 17  2  0
 17 18  1  0
 18 19  1  0
 19 20  2  0
 20 21  1  0
 21 22  2  0
 22 23  1  0
 23 24  2  0
 24 25  1  0
 25 26  1  0
 26 27  1  0
 27 28  2  0
 28 29  1  0
  8 30  1  0
 30 31  2  0
 31  5  1  0
 15 10  1  0
 18 14  1  0
 29 21  1  0
 29 25  2  0
M  END
>  <pIC50>  (164) 
7.78

>  <ChEMBL_ID>  (164) 
CHEMBL454868

>  <document_journal>  (164) 
Bioorg. Med. Chem. Lett.

>  <bao_endpoint>  (164) 
BAO_0000190

>  <potential_duplicate>  (164) 
False

>  <uo_units>  (164) 
UO_0000065

>  <canonical_smiles>  (164) 
CP(=O)(C)c1ccc(Nc2ncnc3c2ncn3\C=C\c4cccc5[nH]ccc45)cc1

>  <parent_molecule_chembl_id>  (164) 
CHEMBL454868

>  <assay_type>  (164) 
B

>  <src_id>  (164) 
1

>  <ligand_efficiency>  (164) 
{u'le': u'0.34', u'bei': u'18.15', u'sei': u'7.91', u'lle': u'3.91'}

>  <standard_flag>  (164) 
True

>  <molecule_chembl_id>  (164) 
CHEMBL454868

>  <target_organism>  (164) 
Homo sapiens

>  <standard_units>  (164) 
nM

>  <record_id>  (164) 
721853

>  <document_chembl_id>  (164) 
CHEMBL1139396

>  <bao_format>  (164) 
BAO_0000357

>  <data_validity_description>  (164) 
None

>  <activity_id>  (164) 
2238240

>  <standard_type>  (164) 
IC50

>  <target_chembl_id>  (164) 
CHEMBL1862

>  <data_validity_comment>  (164) 
None

>  <published_value>  (164) 
16.7

>  <document_year>  (164) 
2008

>  <target_pref_name>  (164) 
Tyrosine-protein kinase ABL

>  <assay_chembl_id>  (164) 
CHEMBL976275

>  <standard_relation>  (164) 
=

>  <assay_description>  (164) 
Inhibition of Abl kinase

>  <published_relation>  (164) 
=

>  <standard_value>  (164) 
16.7

>  <qudt_units>  (164) 
http://www.openphacts.org/units/Nanomolar

>  <target_tax_id>  (164) 
9606

>  <bao_label>  (164) 
single protein format

>  <published_units>  (164) 
nM

>  <pchembl_value>  (164) 
7.78

>  <published_type>  (164) 
IC50

>  <activity_comment>  (164) 
None

$$$$

     RDKit          

 29 32  0  0  0  0  0  0  0  0999 V2000
    0.0000    0.0000    0.0000 C   0  0  0  0  0  0  0  0  0  0  0  0
    0.0000    0.0000    0.0000 P   0  0  0  0  0  0  0  0  0  0  0  0
    0.0000    0.0000    0.0000 O   0  0  0  0  0  0  0  0  0  0  0  0
    0.0000    0.0000    0.0000 C   0  0  0  0  0  0  0  0  0  0  0  0
    0.0000    0.0000    0.0000 C   0  0  0  0  0  0  0  0  0  0  0  0
    0.0000    0.0000    0.0000 C   0  0  0  0  0  0  0  0  0  0  0  0
    0.0000    0.0000    0.0000 C   0  0  0  0  0  0  0  0  0  0  0  0
    0.0000    0.0000    0.0000 C   0  0  0  0  0  0  0  0  0  0  0  0
    0.0000    0.0000    0.0000 N   0  0  0  0  0  0  0  0  0  0  0  0
    0.0000    0.0000    0.0000 C   0  0  0  0  0  0  0  0  0  0  0  0
    0.0000    0.0000    0.0000 N   0  0  0  0  0  0  0  0  0  0  0  0
    0.0000    0.0000    0.0000 C   0  0  0  0  0  0  0  0  0  0  0  0
    0.0000    0.0000    0.0000 N   0  0  0  0  0  0  0  0  0  0  0  0
    0.0000    0.0000    0.0000 C   0  0  0  0  0  0  0  0  0  0  0  0
    0.0000    0.0000    0.0000 C   0  0  0  0  0  0  0  0  0  0  0  0
    0.0000    0.0000    0.0000 N   0  0  0  0  0  0  0  0  0  0  0  0
    0.0000    0.0000    0.0000 C   0  0  0  0  0  0  0  0  0  0  0  0
    0.0000    0.0000    0.0000 N   0  0  0  0  0  0  0  0  0  0  0  0
    0.0000    0.0000    0.0000 C   0  0  0  0  0  0  0  0  0  0  0  0
    0.0000    0.0000    0.0000 C   0  0  0  0  0  0  0  0  0  0  0  0
    0.0000    0.0000    0.0000 C   0  0  0  0  0  0  0  0  0  0  0  0
    0.0000    0.0000    0.0000 C   0  0  0  0  0  0  0  0  0  0  0  0
    0.0000    0.0000    0.0000 C   0  0  0  0  0  0  0  0  0  0  0  0
    0.0000    0.0000    0.0000 C   0  0  0  0  0  0  0  0  0  0  0  0
    0.0000    0.0000    0.0000 C   0  0  0  0  0  0  0  0  0  0  0  0
    0.0000    0.0000    0.0000 C   0  0  0  0  0  0  0  0  0  0  0  0
    0.0000    0.0000    0.0000 Cl  0  0  0  0  0  0  0  0  0  0  0  0
    0.0000    0.0000    0.0000 C   0  0  0  0  0  0  0  0  0  0  0  0
    0.0000    0.0000    0.0000 C   0  0  0  0  0  0  0  0  0  0  0  0
  1  2  1  0
  2  3  2  0
  2  4  1  0
  2  5  1  0
  5  6  2  0
  6  7  1  0
  7  8  2  0
  8  9  1  0
  9 10  1  0
 10 11  2  0
 11 12  1  0
 12 13  2  0
 13 14  1  0
 14 15  2  0
 15 16  1  0
 16 17  2  0
 17 18  1  0
 18 19  1  0
 19 20  2  0
 20 21  1  0
 21 22  2  0
 22 23  1  0
 23 24  2  0
 24 25  1  0
 25 26  2  0
 26 27  1  0
  8 28  1  0
 28 29  2  0
 29  5  1  0
 15 10  1  0
 18 14  1  0
 26 21  1  0
M  END
>  <pIC50>  (165) 
7.16

>  <ChEMBL_ID>  (165) 
CHEMBL510891

>  <document_journal>  (165) 
Bioorg. Med. Chem. Lett.

>  <bao_endpoint>  (165) 
BAO_0000190

>  <potential_duplicate>  (165) 
False

>  <uo_units>  (165) 
UO_0000065

>  <canonical_smiles>  (165) 
CP(=O)(C)c1ccc(Nc2ncnc3c2ncn3\C=C\c4ccccc4Cl)cc1

>  <parent_molecule_chembl_id>  (165) 
CHEMBL510891

>  <assay_type>  (165) 
B

>  <src_id>  (165) 
1

>  <ligand_efficiency>  (165) 
{u'le': u'0.34', u'bei': u'16.89', u'sei': u'8.68', u'lle': u'2.92'}

>  <standard_flag>  (165) 
True

>  <molecule_chembl_id>  (165) 
CHEMBL510891

>  <target_organism>  (165) 
Homo sapiens

>  <standard_units>  (165) 
nM

>  <record_id>  (165) 
721852

>  <document_chembl_id>  (165) 
CHEMBL1139396

>  <bao_format>  (165) 
BAO_0000357

>  <data_validity_description>  (165) 
None

>  <activity_id>  (165) 
2238241

>  <standard_type>  (165) 
IC50

>  <target_chembl_id>  (165) 
CHEMBL1862

>  <data_validity_comment>  (165) 
None

>  <published_value>  (165) 
69.4

>  <document_year>  (165) 
2008

>  <target_pref_name>  (165) 
Tyrosine-protein kinase ABL

>  <assay_chembl_id>  (165) 
CHEMBL976275

>  <standard_relation>  (165) 
=

>  <assay_description>  (165) 
Inhibition of Abl kinase

>  <published_relation>  (165) 
=

>  <standard_value>  (165) 
69.4

>  <qudt_units>  (165) 
http://www.openphacts.org/units/Nanomolar

>  <target_tax_id>  (165) 
9606

>  <bao_label>  (165) 
single protein format

>  <published_units>  (165) 
nM

>  <pchembl_value>  (165) 
7.16

>  <published_type>  (165) 
IC50

>  <activity_comment>  (165) 
None

$$$$

     RDKit          

 30 33  0  0  0  0  0  0  0  0999 V2000
    0.0000    0.0000    0.0000 C   0  0  0  0  0  0  0  0  0  0  0  0
    0.0000    0.0000    0.0000 C   0  0  0  0  0  0  0  0  0  0  0  0
    0.0000    0.0000    0.0000 C   0  0  0  0  0  0  0  0  0  0  0  0
    0.0000    0.0000    0.0000 C   0  0  0  0  0  0  0  0  0  0  0  0
    0.0000    0.0000    0.0000 C   0  0  0  0  0  0  0  0  0  0  0  0
    0.0000    0.0000    0.0000 C   0  0  0  0  0  0  0  0  0  0  0  0
    0.0000    0.0000    0.0000 Cl  0  0  0  0  0  0  0  0  0  0  0  0
    0.0000    0.0000    0.0000 C   0  0  0  0  0  0  0  0  0  0  0  0
    0.0000    0.0000    0.0000 C   0  0  0  0  0  0  0  0  0  0  0  0
    0.0000    0.0000    0.0000 C   0  0  0  0  0  0  0  0  0  0  0  0
    0.0000    0.0000    0.0000 N   0  0  0  0  0  0  0  0  0  0  0  0
    0.0000    0.0000    0.0000 C   0  0  0  0  0  0  0  0  0  0  0  0
    0.0000    0.0000    0.0000 N   0  0  0  0  0  0  0  0  0  0  0  0
    0.0000    0.0000    0.0000 C   0  0  0  0  0  0  0  0  0  0  0  0
    0.0000    0.0000    0.0000 C   0  0  0  0  0  0  0  0  0  0  0  0
    0.0000    0.0000    0.0000 N   0  0  0  0  0  0  0  0  0  0  0  0
    0.0000    0.0000    0.0000 C   0  0  0  0  0  0  0  0  0  0  0  0
    0.0000    0.0000    0.0000 C   0  0  0  0  0  0  0  0  0  0  0  0
    0.0000    0.0000    0.0000 C   0  0  0  0  0  0  0  0  0  0  0  0
    0.0000    0.0000    0.0000 C   0  0  0  0  0  0  0  0  0  0  0  0
    0.0000    0.0000    0.0000 C   0  0  0  0  0  0  0  0  0  0  0  0
    0.0000    0.0000    0.0000 C   0  0  0  0  0  0  0  0  0  0  0  0
    0.0000    0.0000    0.0000 P   0  0  0  0  0  0  0  0  0  0  0  0
    0.0000    0.0000    0.0000 O   0  0  0  0  0  0  0  0  0  0  0  0
    0.0000    0.0000    0.0000 C   0  0  0  0  0  0  0  0  0  0  0  0
    0.0000    0.0000    0.0000 C   0  0  0  0  0  0  0  0  0  0  0  0
    0.0000    0.0000    0.0000 N   0  0  0  0  0  0  0  0  0  0  0  0
    0.0000    0.0000    0.0000 C   0  0  0  0  0  0  0  0  0  0  0  0
    0.0000    0.0000    0.0000 N   0  0  0  0  0  0  0  0  0  0  0  0
    0.0000    0.0000    0.0000 C   0  0  0  0  0  0  0  0  0  0  0  0
  1  2  1  0
  2  3  2  0
  3  4  1  0
  4  5  2  0
  5  6  1  0
  6  7  1  0
  6  8  2  0
  8  9  1  0
  9 10  2  0
 10 11  1  0
 11 12  1  0
 12 13  2  0
 13 14  1  0
 14 15  2  0
 15 16  1  0
 16 17  1  0
 17 18  2  0
 18 19  1  0
 19 20  2  0
 20 21  1  0
 21 22  2  0
 20 23  1  0
 23 24  2  0
 23 25  1  0
 23 26  1  0
 15 27  1  0
 27 28  2  0
 28 29  1  0
 29 30  2  0
  8  2  1  0
 30 11  1  0
 30 14  1  0
 22 17  1  0
M  END
>  <pIC50>  (166) 
8.56

>  <ChEMBL_ID>  (166) 
CHEMBL454611

>  <document_journal>  (166) 
Bioorg. Med. Chem. Lett.

>  <bao_endpoint>  (166) 
BAO_0000190

>  <potential_duplicate>  (166) 
False

>  <uo_units>  (166) 
UO_0000065

>  <canonical_smiles>  (166) 
Cc1cccc(Cl)c1\C=C\n2cnc3c(Nc4ccc(cc4)P(=O)(C)C)ncnc23

>  <parent_molecule_chembl_id>  (166) 
CHEMBL454611

>  <assay_type>  (166) 
B

>  <src_id>  (166) 
1

>  <ligand_efficiency>  (166) 
{u'le': u'0.39', u'bei': u'19.54', u'sei': u'10.37', u'lle': u'3.84'}

>  <standard_flag>  (166) 
True

>  <molecule_chembl_id>  (166) 
CHEMBL454611

>  <target_organism>  (166) 
Homo sapiens

>  <standard_units>  (166) 
nM

>  <record_id>  (166) 
721851

>  <document_chembl_id>  (166) 
CHEMBL1139396

>  <bao_format>  (166) 
BAO_0000357

>  <data_validity_description>  (166) 
None

>  <activity_id>  (166) 
2238242

>  <standard_type>  (166) 
IC50

>  <target_chembl_id>  (166) 
CHEMBL1862

>  <data_validity_comment>  (166) 
None

>  <published_value>  (166) 
2.77

>  <document_year>  (166) 
2008

>  <target_pref_name>  (166) 
Tyrosine-protein kinase ABL

>  <assay_chembl_id>  (166) 
CHEMBL976275

>  <standard_relation>  (166) 
=

>  <assay_description>  (166) 
Inhibition of Abl kinase

>  <published_relation>  (166) 
=

>  <standard_value>  (166) 
2.77

>  <qudt_units>  (166) 
http://www.openphacts.org/units/Nanomolar

>  <target_tax_id>  (166) 
9606

>  <bao_label>  (166) 
single protein format

>  <published_units>  (166) 
nM

>  <pchembl_value>  (166) 
8.56

>  <published_type>  (166) 
IC50

>  <activity_comment>  (166) 
None

$$$$

     RDKit          

 30 33  0  0  0  0  0  0  0  0999 V2000
    0.0000    0.0000    0.0000 C   0  0  0  0  0  0  0  0  0  0  0  0
    0.0000    0.0000    0.0000 C   0  0  0  0  0  0  0  0  0  0  0  0
    0.0000    0.0000    0.0000 C   0  0  0  0  0  0  0  0  0  0  0  0
    0.0000    0.0000    0.0000 C   0  0  0  0  0  0  0  0  0  0  0  0
    0.0000    0.0000    0.0000 C   0  0  0  0  0  0  0  0  0  0  0  0
    0.0000    0.0000    0.0000 C   0  0  0  0  0  0  0  0  0  0  0  0
    0.0000    0.0000    0.0000 C   0  0  0  0  0  0  0  0  0  0  0  0
    0.0000    0.0000    0.0000 C   0  0  0  0  0  0  0  0  0  0  0  0
    0.0000    0.0000    0.0000 C   0  0  0  0  0  0  0  0  0  0  0  0
    0.0000    0.0000    0.0000 C   0  0  0  0  0  0  0  0  0  0  0  0
    0.0000    0.0000    0.0000 N   0  0  0  0  0  0  0  0  0  0  0  0
    0.0000    0.0000    0.0000 C   0  0  0  0  0  0  0  0  0  0  0  0
    0.0000    0.0000    0.0000 N   0  0  0  0  0  0  0  0  0  0  0  0
    0.0000    0.0000    0.0000 C   0  0  0  0  0  0  0  0  0  0  0  0
    0.0000    0.0000    0.0000 C   0  0  0  0  0  0  0  0  0  0  0  0
    0.0000    0.0000    0.0000 N   0  0  0  0  0  0  0  0  0  0  0  0
    0.0000    0.0000    0.0000 C   0  0  0  0  0  0  0  0  0  0  0  0
    0.0000    0.0000    0.0000 C   0  0  0  0  0  0  0  0  0  0  0  0
    0.0000    0.0000    0.0000 C   0  0  0  0  0  0  0  0  0  0  0  0
    0.0000    0.0000    0.0000 C   0  0  0  0  0  0  0  0  0  0  0  0
    0.0000    0.0000    0.0000 C   0  0  0  0  0  0  0  0  0  0  0  0
    0.0000    0.0000    0.0000 C   0  0  0  0  0  0  0  0  0  0  0  0
    0.0000    0.0000    0.0000 P   0  0  0  0  0  0  0  0  0  0  0  0
    0.0000    0.0000    0.0000 O   0  0  0  0  0  0  0  0  0  0  0  0
    0.0000    0.0000    0.0000 C   0  0  0  0  0  0  0  0  0  0  0  0
    0.0000    0.0000    0.0000 C   0  0  0  0  0  0  0  0  0  0  0  0
    0.0000    0.0000    0.0000 N   0  0  0  0  0  0  0  0  0  0  0  0
    0.0000    0.0000    0.0000 C   0  0  0  0  0  0  0  0  0  0  0  0
    0.0000    0.0000    0.0000 N   0  0  0  0  0  0  0  0  0  0  0  0
    0.0000    0.0000    0.0000 C   0  0  0  0  0  0  0  0  0  0  0  0
  1  2  1  0
  2  3  2  0
  3  4  1  0
  4  5  2  0
  5  6  1  0
  6  7  1  0
  6  8  2  0
  8  9  1  0
  9 10  2  0
 10 11  1  0
 11 12  1  0
 12 13  2  0
 13 14  1  0
 14 15  2  0
 15 16  1  0
 16 17  1  0
 17 18  2  0
 18 19  1  0
 19 20  2  0
 20 21  1  0
 21 22  2  0
 20 23  1  0
 23 24  2  0
 23 25  1  0
 23 26  1  0
 15 27  1  0
 27 28  2  0
 28 29  1  0
 29 30  2  0
  8  2  1  0
 30 11  1  0
 30 14  1  0
 22 17  1  0
M  END
>  <pIC50>  (167) 
8.45

>  <ChEMBL_ID>  (167) 
CHEMBL488840

>  <document_journal>  (167) 
Bioorg. Med. Chem. Lett.

>  <bao_endpoint>  (167) 
BAO_0000190

>  <potential_duplicate>  (167) 
False

>  <uo_units>  (167) 
UO_0000065

>  <canonical_smiles>  (167) 
Cc1cccc(C)c1\C=C\n2cnc3c(Nc4ccc(cc4)P(=O)(C)C)ncnc23

>  <parent_molecule_chembl_id>  (167) 
CHEMBL488840

>  <assay_type>  (167) 
B

>  <src_id>  (167) 
1

>  <ligand_efficiency>  (167) 
{u'le': u'0.38', u'bei': u'20.23', u'sei': u'10.24', u'lle': u'3.9'}

>  <standard_flag>  (167) 
True

>  <molecule_chembl_id>  (167) 
CHEMBL488840

>  <target_organism>  (167) 
Homo sapiens

>  <standard_units>  (167) 
nM

>  <record_id>  (167) 
721656

>  <document_chembl_id>  (167) 
CHEMBL1139396

>  <bao_format>  (167) 
BAO_0000357

>  <data_validity_description>  (167) 
None

>  <activity_id>  (167) 
2238243

>  <standard_type>  (167) 
IC50

>  <target_chembl_id>  (167) 
CHEMBL1862

>  <data_validity_comment>  (167) 
None

>  <published_value>  (167) 
3.58

>  <document_year>  (167) 
2008

>  <target_pref_name>  (167) 
Tyrosine-protein kinase ABL

>  <assay_chembl_id>  (167) 
CHEMBL976275

>  <standard_relation>  (167) 
=

>  <assay_description>  (167) 
Inhibition of Abl kinase

>  <published_relation>  (167) 
=

>  <standard_value>  (167) 
3.58

>  <qudt_units>  (167) 
http://www.openphacts.org/units/Nanomolar

>  <target_tax_id>  (167) 
9606

>  <bao_label>  (167) 
single protein format

>  <published_units>  (167) 
nM

>  <pchembl_value>  (167) 
8.45

>  <published_type>  (167) 
IC50

>  <activity_comment>  (167) 
None

$$$$

     RDKit          

 35 38  0  0  0  0  0  0  0  0999 V2000
    0.0000    0.0000    0.0000 C   0  0  0  0  0  0  0  0  0  0  0  0
    0.0000    0.0000    0.0000 C   0  0  0  0  0  0  0  0  0  0  0  0
    0.0000    0.0000    0.0000 C   0  0  0  0  0  0  0  0  0  0  0  0
    0.0000    0.0000    0.0000 P   0  0  0  0  0  0  0  0  0  0  0  0
    0.0000    0.0000    0.0000 O   0  0  0  0  0  0  0  0  0  0  0  0
    0.0000    0.0000    0.0000 C   0  0  0  0  0  0  0  0  0  0  0  0
    0.0000    0.0000    0.0000 C   0  0  0  0  0  0  0  0  0  0  0  0
    0.0000    0.0000    0.0000 C   0  0  0  0  0  0  0  0  0  0  0  0
    0.0000    0.0000    0.0000 C   0  0  0  0  0  0  0  0  0  0  0  0
    0.0000    0.0000    0.0000 C   0  0  0  0  0  0  0  0  0  0  0  0
    0.0000    0.0000    0.0000 C   0  0  0  0  0  0  0  0  0  0  0  0
    0.0000    0.0000    0.0000 C   0  0  0  0  0  0  0  0  0  0  0  0
    0.0000    0.0000    0.0000 N   0  0  0  0  0  0  0  0  0  0  0  0
    0.0000    0.0000    0.0000 C   0  0  0  0  0  0  0  0  0  0  0  0
    0.0000    0.0000    0.0000 N   0  0  0  0  0  0  0  0  0  0  0  0
    0.0000    0.0000    0.0000 C   0  0  0  0  0  0  0  0  0  0  0  0
    0.0000    0.0000    0.0000 N   0  0  0  0  0  0  0  0  0  0  0  0
    0.0000    0.0000    0.0000 C   0  0  0  0  0  0  0  0  0  0  0  0
    0.0000    0.0000    0.0000 C   0  0  0  0  0  0  0  0  0  0  0  0
    0.0000    0.0000    0.0000 N   0  0  0  0  0  0  0  0  0  0  0  0
    0.0000    0.0000    0.0000 C   0  0  0  0  0  0  0  0  0  0  0  0
    0.0000    0.0000    0.0000 N   0  0  0  0  0  0  0  0  0  0  0  0
    0.0000    0.0000    0.0000 C   0  0  0  0  0  0  0  0  0  0  0  0
    0.0000    0.0000    0.0000 C   0  0  0  0  0  0  0  0  0  0  0  0
    0.0000    0.0000    0.0000 C   0  0  0  0  0  0  0  0  0  0  0  0
    0.0000    0.0000    0.0000 C   0  0  0  0  0  0  0  0  0  0  0  0
    0.0000    0.0000    0.0000 C   0  0  0  0  0  0  0  0  0  0  0  0
    0.0000    0.0000    0.0000 C   0  0  0  0  0  0  0  0  0  0  0  0
    0.0000    0.0000    0.0000 C   0  0  0  0  0  0  0  0  0  0  0  0
    0.0000    0.0000    0.0000 C   0  0  0  0  0  0  0  0  0  0  0  0
    0.0000    0.0000    0.0000 C   0  0  0  0  0  0  0  0  0  0  0  0
    0.0000    0.0000    0.0000 C   0  0  0  0  0  0  0  0  0  0  0  0
    0.0000    0.0000    0.0000 C   0  0  0  0  0  0  0  0  0  0  0  0
    0.0000    0.0000    0.0000 C   0  0  0  0  0  0  0  0  0  0  0  0
    0.0000    0.0000    0.0000 C   0  0  0  0  0  0  0  0  0  0  0  0
  1  2  1  0
  2  3  1  0
  3  4  1  0
  4  5  2  0
  4  6  1  0
  6  7  1  0
  7  8  1  0
  4  9  1  0
  9 10  2  0
 10 11  1  0
 11 12  2  0
 12 13  1  0
 13 14  1  0
 14 15  2  0
 15 16  1  0
 16 17  2  0
 17 18  1  0
 18 19  2  0
 19 20  1  0
 20 21  2  0
 21 22  1  0
 22 23  1  0
 23 24  2  0
 24 25  1  0
 25 26  2  0
 26 27  1  0
 27 28  2  0
 28 29  1  0
 29 30  2  0
 16 31  1  0
 31 32  1  0
 31 33  1  0
 12 34  1  0
 34 35  2  0
 35  9  1  0
 19 14  1  0
 22 18  1  0
 30 25  1  0
M  END
>  <pIC50>  (168) 
6.2

>  <ChEMBL_ID>  (168) 
CHEMBL488659

>  <document_journal>  (168) 
Bioorg. Med. Chem. Lett.

>  <bao_endpoint>  (168) 
BAO_0000190

>  <potential_duplicate>  (168) 
False

>  <uo_units>  (168) 
UO_0000065

>  <canonical_smiles>  (168) 
CCCP(=O)(CCC)c1ccc(Nc2nc(nc3c2ncn3\C=C/c4ccccc4)C(C)C)cc1

>  <parent_molecule_chembl_id>  (168) 
CHEMBL488659

>  <assay_type>  (168) 
B

>  <src_id>  (168) 
1

>  <ligand_efficiency>  (168) 
{u'le': u'0.24', u'bei': u'12.72', u'sei': u'7.52', u'lle': u'-0.2'}

>  <standard_flag>  (168) 
True

>  <molecule_chembl_id>  (168) 
CHEMBL488659

>  <target_organism>  (168) 
Homo sapiens

>  <standard_units>  (168) 
nM

>  <record_id>  (168) 
721572

>  <document_chembl_id>  (168) 
CHEMBL1139396

>  <bao_format>  (168) 
BAO_0000357

>  <data_validity_description>  (168) 
None

>  <activity_id>  (168) 
2238244

>  <standard_type>  (168) 
IC50

>  <target_chembl_id>  (168) 
CHEMBL1862

>  <data_validity_comment>  (168) 
None

>  <published_value>  (168) 
626

>  <document_year>  (168) 
2008

>  <target_pref_name>  (168) 
Tyrosine-protein kinase ABL

>  <assay_chembl_id>  (168) 
CHEMBL976275

>  <standard_relation>  (168) 
=

>  <assay_description>  (168) 
Inhibition of Abl kinase

>  <published_relation>  (168) 
=

>  <standard_value>  (168) 
626

>  <qudt_units>  (168) 
http://www.openphacts.org/units/Nanomolar

>  <target_tax_id>  (168) 
9606

>  <bao_label>  (168) 
single protein format

>  <published_units>  (168) 
nM

>  <pchembl_value>  (168) 
6.2

>  <published_type>  (168) 
IC50

>  <activity_comment>  (168) 
None

$$$$

     RDKit          

 35 38  0  0  0  0  0  0  0  0999 V2000
    0.0000    0.0000    0.0000 C   0  0  0  0  0  0  0  0  0  0  0  0
    0.0000    0.0000    0.0000 C   0  0  0  0  0  0  0  0  0  0  0  0
    0.0000    0.0000    0.0000 C   0  0  0  0  0  0  0  0  0  0  0  0
    0.0000    0.0000    0.0000 P   0  0  0  0  0  0  0  0  0  0  0  0
    0.0000    0.0000    0.0000 O   0  0  0  0  0  0  0  0  0  0  0  0
    0.0000    0.0000    0.0000 C   0  0  0  0  0  0  0  0  0  0  0  0
    0.0000    0.0000    0.0000 C   0  0  0  0  0  0  0  0  0  0  0  0
    0.0000    0.0000    0.0000 C   0  0  0  0  0  0  0  0  0  0  0  0
    0.0000    0.0000    0.0000 C   0  0  0  0  0  0  0  0  0  0  0  0
    0.0000    0.0000    0.0000 C   0  0  0  0  0  0  0  0  0  0  0  0
    0.0000    0.0000    0.0000 C   0  0  0  0  0  0  0  0  0  0  0  0
    0.0000    0.0000    0.0000 C   0  0  0  0  0  0  0  0  0  0  0  0
    0.0000    0.0000    0.0000 N   0  0  0  0  0  0  0  0  0  0  0  0
    0.0000    0.0000    0.0000 C   0  0  0  0  0  0  0  0  0  0  0  0
    0.0000    0.0000    0.0000 N   0  0  0  0  0  0  0  0  0  0  0  0
    0.0000    0.0000    0.0000 C   0  0  0  0  0  0  0  0  0  0  0  0
    0.0000    0.0000    0.0000 N   0  0  0  0  0  0  0  0  0  0  0  0
    0.0000    0.0000    0.0000 C   0  0  0  0  0  0  0  0  0  0  0  0
    0.0000    0.0000    0.0000 C   0  0  0  0  0  0  0  0  0  0  0  0
    0.0000    0.0000    0.0000 N   0  0  0  0  0  0  0  0  0  0  0  0
    0.0000    0.0000    0.0000 C   0  0  0  0  0  0  0  0  0  0  0  0
    0.0000    0.0000    0.0000 N   0  0  0  0  0  0  0  0  0  0  0  0
    0.0000    0.0000    0.0000 C   0  0  0  0  0  0  0  0  0  0  0  0
    0.0000    0.0000    0.0000 C   0  0  0  0  0  0  0  0  0  0  0  0
    0.0000    0.0000    0.0000 C   0  0  0  0  0  0  0  0  0  0  0  0
    0.0000    0.0000    0.0000 C   0  0  0  0  0  0  0  0  0  0  0  0
    0.0000    0.0000    0.0000 C   0  0  0  0  0  0  0  0  0  0  0  0
    0.0000    0.0000    0.0000 C   0  0  0  0  0  0  0  0  0  0  0  0
    0.0000    0.0000    0.0000 C   0  0  0  0  0  0  0  0  0  0  0  0
    0.0000    0.0000    0.0000 C   0  0  0  0  0  0  0  0  0  0  0  0
    0.0000    0.0000    0.0000 C   0  0  0  0  0  0  0  0  0  0  0  0
    0.0000    0.0000    0.0000 C   0  0  0  0  0  0  0  0  0  0  0  0
    0.0000    0.0000    0.0000 C   0  0  0  0  0  0  0  0  0  0  0  0
    0.0000    0.0000    0.0000 C   0  0  0  0  0  0  0  0  0  0  0  0
    0.0000    0.0000    0.0000 C   0  0  0  0  0  0  0  0  0  0  0  0
  1  2  1  0
  2  3  1  0
  3  4  1  0
  4  5  2  0
  4  6  1  0
  6  7  1  0
  7  8  1  0
  4  9  1  0
  9 10  2  0
 10 11  1  0
 11 12  2  0
 12 13  1  0
 13 14  1  0
 14 15  2  0
 15 16  1  0
 16 17  2  0
 17 18  1  0
 18 19  2  0
 19 20  1  0
 20 21  2  0
 21 22  1  0
 22 23  1  0
 23 24  2  0
 24 25  1  0
 25 26  2  0
 26 27  1  0
 27 28  2  0
 28 29  1  0
 29 30  2  0
 16 31  1  0
 31 32  1  0
 31 33  1  0
 12 34  1  0
 34 35  2  0
 35  9  1  0
 19 14  1  0
 22 18  1  0
 30 25  1  0
M  END
>  <pIC50>  (169) 
7.14

>  <ChEMBL_ID>  (169) 
CHEMBL488658

>  <document_journal>  (169) 
Bioorg. Med. Chem. Lett.

>  <bao_endpoint>  (169) 
BAO_0000190

>  <potential_duplicate>  (169) 
False

>  <uo_units>  (169) 
UO_0000065

>  <canonical_smiles>  (169) 
CCCP(=O)(CCC)c1ccc(Nc2nc(nc3c2ncn3\C=C\c4ccccc4)C(C)C)cc1

>  <parent_molecule_chembl_id>  (169) 
CHEMBL488658

>  <assay_type>  (169) 
B

>  <src_id>  (169) 
1

>  <ligand_efficiency>  (169) 
{u'le': u'0.28', u'bei': u'14.63', u'sei': u'8.65', u'lle': u'0.73'}

>  <standard_flag>  (169) 
True

>  <molecule_chembl_id>  (169) 
CHEMBL488658

>  <target_organism>  (169) 
Homo sapiens

>  <standard_units>  (169) 
nM

>  <record_id>  (169) 
721571

>  <document_chembl_id>  (169) 
CHEMBL1139396

>  <bao_format>  (169) 
BAO_0000357

>  <data_validity_description>  (169) 
None

>  <activity_id>  (169) 
2238245

>  <standard_type>  (169) 
IC50

>  <target_chembl_id>  (169) 
CHEMBL1862

>  <data_validity_comment>  (169) 
None

>  <published_value>  (169) 
73.3

>  <document_year>  (169) 
2008

>  <target_pref_name>  (169) 
Tyrosine-protein kinase ABL

>  <assay_chembl_id>  (169) 
CHEMBL976275

>  <standard_relation>  (169) 
=

>  <assay_description>  (169) 
Inhibition of Abl kinase

>  <published_relation>  (169) 
=

>  <standard_value>  (169) 
73.3

>  <qudt_units>  (169) 
http://www.openphacts.org/units/Nanomolar

>  <target_tax_id>  (169) 
9606

>  <bao_label>  (169) 
single protein format

>  <published_units>  (169) 
nM

>  <pchembl_value>  (169) 
7.14

>  <published_type>  (169) 
IC50

>  <activity_comment>  (169) 
None

$$$$

     RDKit          

 37 40  0  0  0  0  0  0  0  0999 V2000
    0.0000    0.0000    0.0000 C   0  0  0  0  0  0  0  0  0  0  0  0
    0.0000    0.0000    0.0000 C   0  0  0  0  0  0  0  0  0  0  0  0
    0.0000    0.0000    0.0000 C   0  0  0  0  0  0  0  0  0  0  0  0
    0.0000    0.0000    0.0000 P   0  0  0  0  0  0  0  0  0  0  0  0
    0.0000    0.0000    0.0000 O   0  0  0  0  0  0  0  0  0  0  0  0
    0.0000    0.0000    0.0000 C   0  0  0  0  0  0  0  0  0  0  0  0
    0.0000    0.0000    0.0000 C   0  0  0  0  0  0  0  0  0  0  0  0
    0.0000    0.0000    0.0000 C   0  0  0  0  0  0  0  0  0  0  0  0
    0.0000    0.0000    0.0000 C   0  0  0  0  0  0  0  0  0  0  0  0
    0.0000    0.0000    0.0000 C   0  0  0  0  0  0  0  0  0  0  0  0
    0.0000    0.0000    0.0000 C   0  0  0  0  0  0  0  0  0  0  0  0
    0.0000    0.0000    0.0000 C   0  0  0  0  0  0  0  0  0  0  0  0
    0.0000    0.0000    0.0000 N   0  0  0  0  0  0  0  0  0  0  0  0
    0.0000    0.0000    0.0000 C   0  0  0  0  0  0  0  0  0  0  0  0
    0.0000    0.0000    0.0000 N   0  0  0  0  0  0  0  0  0  0  0  0
    0.0000    0.0000    0.0000 C   0  0  0  0  0  0  0  0  0  0  0  0
    0.0000    0.0000    0.0000 N   0  0  0  0  0  0  0  0  0  0  0  0
    0.0000    0.0000    0.0000 C   0  0  0  0  0  0  0  0  0  0  0  0
    0.0000    0.0000    0.0000 C   0  0  0  0  0  0  0  0  0  0  0  0
    0.0000    0.0000    0.0000 N   0  0  0  0  0  0  0  0  0  0  0  0
    0.0000    0.0000    0.0000 C   0  0  0  0  0  0  0  0  0  0  0  0
    0.0000    0.0000    0.0000 N   0  0  0  0  0  0  0  0  0  0  0  0
    0.0000    0.0000    0.0000 C   0  0  0  0  0  0  0  0  0  0  0  0
    0.0000    0.0000    0.0000 C   0  0  0  0  0  0  0  0  0  0  0  0
    0.0000    0.0000    0.0000 C   0  0  0  0  0  0  0  0  0  0  0  0
    0.0000    0.0000    0.0000 C   0  0  0  0  0  0  0  0  0  0  0  0
    0.0000    0.0000    0.0000 C   0  0  0  0  0  0  0  0  0  0  0  0
    0.0000    0.0000    0.0000 C   0  0  0  0  0  0  0  0  0  0  0  0
    0.0000    0.0000    0.0000 C   0  0  0  0  0  0  0  0  0  0  0  0
    0.0000    0.0000    0.0000 C   0  0  0  0  0  0  0  0  0  0  0  0
    0.0000    0.0000    0.0000 C   0  0  0  0  0  0  0  0  0  0  0  0
    0.0000    0.0000    0.0000 C   0  0  0  0  0  0  0  0  0  0  0  0
    0.0000    0.0000    0.0000 C   0  0  0  0  0  0  0  0  0  0  0  0
    0.0000    0.0000    0.0000 C   0  0  0  0  0  0  0  0  0  0  0  0
    0.0000    0.0000    0.0000 C   0  0  0  0  0  0  0  0  0  0  0  0
    0.0000    0.0000    0.0000 C   0  0  0  0  0  0  0  0  0  0  0  0
    0.0000    0.0000    0.0000 C   0  0  0  0  0  0  0  0  0  0  0  0
  1  2  1  0
  2  3  1  0
  3  4  1  0
  4  5  2  0
  4  6  1  0
  6  7  1  0
  7  8  1  0
  4  9  1  0
  9 10  2  0
 10 11  1  0
 11 12  2  0
 12 13  1  0
 13 14  1  0
 14 15  2  0
 15 16  1  0
 16 17  2  0
 17 18  1  0
 18 19  2  0
 19 20  1  0
 20 21  2  0
 21 22  1  0
 22 23  1  0
 23 24  2  0
 24 25  1  0
 25 26  2  0
 26 27  1  0
 26 28  1  0
 28 29  2  0
 29 30  1  0
 30 31  2  0
 31 32  1  0
 16 33  1  0
 33 34  1  0
 33 35  1  0
 12 36  1  0
 36 37  2  0
 37  9  1  0
 19 14  1  0
 22 18  1  0
 31 25  1  0
M  END
>  <pIC50>  (170) 
7.27

>  <ChEMBL_ID>  (170) 
CHEMBL520540

>  <document_journal>  (170) 
Bioorg. Med. Chem. Lett.

>  <bao_endpoint>  (170) 
BAO_0000190

>  <potential_duplicate>  (170) 
False

>  <uo_units>  (170) 
UO_0000065

>  <canonical_smiles>  (170) 
CCCP(=O)(CCC)c1ccc(Nc2nc(nc3c2ncn3\C=C/c4c(C)cccc4C)C(C)C)cc1

>  <parent_molecule_chembl_id>  (170) 
CHEMBL520540

>  <assay_type>  (170) 
B

>  <src_id>  (170) 
1

>  <ligand_efficiency>  (170) 
{u'le': u'0.27', u'bei': u'14.09', u'sei': u'8.81', u'lle': u'-0.11'}

>  <standard_flag>  (170) 
True

>  <molecule_chembl_id>  (170) 
CHEMBL520540

>  <target_organism>  (170) 
Homo sapiens

>  <standard_units>  (170) 
nM

>  <record_id>  (170) 
721570

>  <document_chembl_id>  (170) 
CHEMBL1139396

>  <bao_format>  (170) 
BAO_0000357

>  <data_validity_description>  (170) 
None

>  <activity_id>  (170) 
2238246

>  <standard_type>  (170) 
IC50

>  <target_chembl_id>  (170) 
CHEMBL1862

>  <data_validity_comment>  (170) 
None

>  <published_value>  (170) 
54.3

>  <document_year>  (170) 
2008

>  <target_pref_name>  (170) 
Tyrosine-protein kinase ABL

>  <assay_chembl_id>  (170) 
CHEMBL976275

>  <standard_relation>  (170) 
=

>  <assay_description>  (170) 
Inhibition of Abl kinase

>  <published_relation>  (170) 
=

>  <standard_value>  (170) 
54.3

>  <qudt_units>  (170) 
http://www.openphacts.org/units/Nanomolar

>  <target_tax_id>  (170) 
9606

>  <bao_label>  (170) 
single protein format

>  <published_units>  (170) 
nM

>  <pchembl_value>  (170) 
7.27

>  <published_type>  (170) 
IC50

>  <activity_comment>  (170) 
None

$$$$

     RDKit          

 32 34  0  0  0  0  0  0  0  0999 V2000
    0.0000    0.0000    0.0000 O   0  0  0  0  0  0  0  0  0  0  0  0
    0.0000    0.0000    0.0000 C   0  0  0  0  0  0  0  0  0  0  0  0
    0.0000    0.0000    0.0000 C   0  0  0  0  0  0  0  0  0  0  0  0
    0.0000    0.0000    0.0000 O   0  0  0  0  0  0  0  0  0  0  0  0
    0.0000    0.0000    0.0000 C   0  0  0  0  0  0  0  0  0  0  0  0
    0.0000    0.0000    0.0000 C   0  0  0  0  0  0  0  0  0  0  0  0
    0.0000    0.0000    0.0000 C   0  0  0  0  0  0  0  0  0  0  0  0
    0.0000    0.0000    0.0000 C   0  0  0  0  0  0  0  0  0  0  0  0
    0.0000    0.0000    0.0000 O   0  0  0  0  0  0  0  0  0  0  0  0
    0.0000    0.0000    0.0000 N   0  0  0  0  0  0  0  0  0  0  0  0
    0.0000    0.0000    0.0000 N   0  0  0  0  0  0  0  0  0  0  0  0
    0.0000    0.0000    0.0000 C   0  0  0  0  0  0  0  0  0  0  0  0
    0.0000    0.0000    0.0000 C   0  0  0  0  0  0  0  0  0  0  0  0
    0.0000    0.0000    0.0000 C   0  0  0  0  0  0  0  0  0  0  0  0
    0.0000    0.0000    0.0000 C   0  0  0  0  0  0  0  0  0  0  0  0
    0.0000    0.0000    0.0000 C   0  0  0  0  0  0  0  0  0  0  0  0
    0.0000    0.0000    0.0000 O   0  0  0  0  0  0  0  0  0  0  0  0
    0.0000    0.0000    0.0000 O   0  0  0  0  0  0  0  0  0  0  0  0
    0.0000    0.0000    0.0000 C   0  0  0  0  0  0  0  0  0  0  0  0
    0.0000    0.0000    0.0000 N   0  0  0  0  0  0  0  0  0  0  0  0
    0.0000    0.0000    0.0000 C   0  0  0  0  0  0  0  0  0  0  0  0
    0.0000    0.0000    0.0000 C   0  0  0  0  0  0  0  0  0  0  0  0
    0.0000    0.0000    0.0000 C   0  0  0  0  0  0  0  0  0  0  0  0
    0.0000    0.0000    0.0000 C   0  0  0  0  0  0  0  0  0  0  0  0
    0.0000    0.0000    0.0000 I   0  0  0  0  0  0  0  0  0  0  0  0
    0.0000    0.0000    0.0000 C   0  0  0  0  0  0  0  0  0  0  0  0
    0.0000    0.0000    0.0000 C   0  0  0  0  0  0  0  0  0  0  0  0
    0.0000    0.0000    0.0000 F   0  0  0  0  0  0  0  0  0  0  0  0
    0.0000    0.0000    0.0000 C   0  0  0  0  0  0  0  0  0  0  0  0
    0.0000    0.0000    0.0000 F   0  0  0  0  0  0  0  0  0  0  0  0
    0.0000    0.0000    0.0000 C   0  0  0  0  0  0  0  0  0  0  0  0
    0.0000    0.0000    0.0000 F   0  0  0  0  0  0  0  0  0  0  0  0
  1  2  1  0
  2  3  1  0
  3  4  1  0
  4  5  1  0
  5  6  2  0
  6  7  1  0
  5  8  1  0
  8  9  2  0
  8 10  1  0
 10 11  1  0
 11 12  2  0
 12 13  1  0
 13 14  2  0
 14 15  1  0
 15 16  1  0
 16 17  2  0
 16 18  1  0
 15 19  2  0
 19 20  1  0
 20 21  1  0
 21 22  2  0
 22 23  1  0
 23 24  2  0
 24 25  1  0
 24 26  1  0
 26 27  2  0
 27 28  1  0
 19 29  1  0
 29 30  1  0
 29 31  2  0
 31 32  1  0
  7  3  2  0
 31 13  1  0
 27 21  1  0
M  END
>  <pIC50>  (171) 
6.52

>  <ChEMBL_ID>  (171) 
CHEMBL481968

>  <document_journal>  (171) 
Bioorg. Med. Chem. Lett.

>  <bao_endpoint>  (171) 
BAO_0000190

>  <potential_duplicate>  (171) 
False

>  <uo_units>  (171) 
UO_0000065

>  <canonical_smiles>  (171) 
OCc1oc(cc1)C(=O)N\N=C\c2cc(C(=O)O)c(Nc3ccc(I)cc3F)c(F)c2F

>  <parent_molecule_chembl_id>  (171) 
CHEMBL481968

>  <assay_type>  (171) 
B

>  <src_id>  (171) 
1

>  <ligand_efficiency>  (171) 
{u'le': u'0.28', u'bei': u'11.66', u'sei': u'5.25', u'lle': u'2.59'}

>  <standard_flag>  (171) 
True

>  <molecule_chembl_id>  (171) 
CHEMBL481968

>  <target_organism>  (171) 
Homo sapiens

>  <standard_units>  (171) 
nM

>  <record_id>  (171) 
750689

>  <document_chembl_id>  (171) 
CHEMBL1139272

>  <bao_format>  (171) 
BAO_0000357

>  <data_validity_description>  (171) 
None

>  <activity_id>  (171) 
2264727

>  <standard_type>  (171) 
IC50

>  <target_chembl_id>  (171) 
CHEMBL1862

>  <data_validity_comment>  (171) 
None

>  <published_value>  (171) 
0.3

>  <document_year>  (171) 
2009

>  <target_pref_name>  (171) 
Tyrosine-protein kinase ABL

>  <assay_chembl_id>  (171) 
CHEMBL963867

>  <standard_relation>  (171) 
=

>  <assay_description>  (171) 
Binding affinity to ABL

>  <published_relation>  (171) 
=

>  <standard_value>  (171) 
300

>  <qudt_units>  (171) 
http://www.openphacts.org/units/Nanomolar

>  <target_tax_id>  (171) 
9606

>  <bao_label>  (171) 
single protein format

>  <published_units>  (171) 
uM

>  <pchembl_value>  (171) 
6.52

>  <published_type>  (171) 
IC50

>  <activity_comment>  (171) 
None

$$$$

     RDKit          

 36 38  0  0  0  0  0  0  0  0999 V2000
    0.0000    0.0000    0.0000 O   0  0  0  0  0  0  0  0  0  0  0  0
    0.0000    0.0000    0.0000 C   0  0  0  0  0  0  0  0  0  0  0  0
    0.0000    0.0000    0.0000 O   0  0  0  0  0  0  0  0  0  0  0  0
    0.0000    0.0000    0.0000 C   0  0  0  0  0  0  0  0  0  0  0  0
    0.0000    0.0000    0.0000 C   0  0  0  0  0  0  0  0  0  0  0  0
    0.0000    0.0000    0.0000 C   0  0  0  0  0  0  0  0  0  0  0  0
    0.0000    0.0000    0.0000 C   0  0  0  0  0  0  0  0  0  0  0  0
    0.0000    0.0000    0.0000 N   0  0  0  0  0  0  0  0  0  0  0  0
    0.0000    0.0000    0.0000 N   0  0  0  0  0  0  0  0  0  0  0  0
    0.0000    0.0000    0.0000 C   0  0  0  0  0  0  0  0  0  0  0  0
    0.0000    0.0000    0.0000 O   0  0  0  0  0  0  0  0  0  0  0  0
    0.0000    0.0000    0.0000 C   0  0  0  0  0  0  0  0  0  0  0  0
    0.0000    0.0000    0.0000 S   0  0  0  0  0  0  0  0  0  0  0  0
    0.0000    0.0000    0.0000 O   0  0  0  0  0  0  0  0  0  0  0  0
    0.0000    0.0000    0.0000 O   0  0  0  0  0  0  0  0  0  0  0  0
    0.0000    0.0000    0.0000 C   0  0  0  0  0  0  0  0  0  0  0  0
    0.0000    0.0000    0.0000 C   0  0  0  0  0  0  0  0  0  0  0  0
    0.0000    0.0000    0.0000 C   0  0  0  0  0  0  0  0  0  0  0  0
    0.0000    0.0000    0.0000 C   0  0  0  0  0  0  0  0  0  0  0  0
    0.0000    0.0000    0.0000 Cl  0  0  0  0  0  0  0  0  0  0  0  0
    0.0000    0.0000    0.0000 C   0  0  0  0  0  0  0  0  0  0  0  0
    0.0000    0.0000    0.0000 C   0  0  0  0  0  0  0  0  0  0  0  0
    0.0000    0.0000    0.0000 C   0  0  0  0  0  0  0  0  0  0  0  0
    0.0000    0.0000    0.0000 F   0  0  0  0  0  0  0  0  0  0  0  0
    0.0000    0.0000    0.0000 C   0  0  0  0  0  0  0  0  0  0  0  0
    0.0000    0.0000    0.0000 F   0  0  0  0  0  0  0  0  0  0  0  0
    0.0000    0.0000    0.0000 C   0  0  0  0  0  0  0  0  0  0  0  0
    0.0000    0.0000    0.0000 N   0  0  0  0  0  0  0  0  0  0  0  0
    0.0000    0.0000    0.0000 C   0  0  0  0  0  0  0  0  0  0  0  0
    0.0000    0.0000    0.0000 C   0  0  0  0  0  0  0  0  0  0  0  0
    0.0000    0.0000    0.0000 C   0  0  0  0  0  0  0  0  0  0  0  0
    0.0000    0.0000    0.0000 C   0  0  0  0  0  0  0  0  0  0  0  0
    0.0000    0.0000    0.0000 I   0  0  0  0  0  0  0  0  0  0  0  0
    0.0000    0.0000    0.0000 C   0  0  0  0  0  0  0  0  0  0  0  0
    0.0000    0.0000    0.0000 C   0  0  0  0  0  0  0  0  0  0  0  0
    0.0000    0.0000    0.0000 F   0  0  0  0  0  0  0  0  0  0  0  0
  1  2  1  0
  2  3  2  0
  2  4  1  0
  4  5  2  0
  5  6  1  0
  6  7  1  0
  7  8  2  0
  8  9  1  0
  9 10  1  0
 10 11  2  0
 10 12  1  0
 12 13  1  0
 13 14  2  0
 13 15  2  0
 13 16  1  0
 16 17  2  0
 17 18  1  0
 18 19  2  0
 19 20  1  0
 19 21  1  0
 21 22  2  0
  6 23  2  0
 23 24  1  0
 23 25  1  0
 25 26  1  0
 25 27  2  0
 27 28  1  0
 28 29  1  0
 29 30  2  0
 30 31  1  0
 31 32  2  0
 32 33  1  0
 32 34  1  0
 34 35  2  0
 35 36  1  0
 27  4  1  0
 22 16  1  0
 35 29  1  0
M  END
>  <pIC50>  (172) 
5.4

>  <ChEMBL_ID>  (172) 
CHEMBL481969

>  <document_journal>  (172) 
Bioorg. Med. Chem. Lett.

>  <bao_endpoint>  (172) 
BAO_0000190

>  <potential_duplicate>  (172) 
False

>  <uo_units>  (172) 
UO_0000065

>  <canonical_smiles>  (172) 
OC(=O)c1cc(\C=N\NC(=O)CS(=O)(=O)c2ccc(Cl)cc2)c(F)c(F)c1Nc3ccc(I)cc3F

>  <parent_molecule_chembl_id>  (172) 
CHEMBL481969

>  <assay_type>  (172) 
B

>  <src_id>  (172) 
1

>  <ligand_efficiency>  (172) 
{u'le': u'0.2', u'bei': u'8.28', u'sei': u'4.05', u'lle': u'0.3'}

>  <standard_flag>  (172) 
True

>  <molecule_chembl_id>  (172) 
CHEMBL481969

>  <target_organism>  (172) 
Homo sapiens

>  <standard_units>  (172) 
nM

>  <record_id>  (172) 
750690

>  <document_chembl_id>  (172) 
CHEMBL1139272

>  <bao_format>  (172) 
BAO_0000357

>  <data_validity_description>  (172) 
None

>  <activity_id>  (172) 
2264728

>  <standard_type>  (172) 
IC50

>  <target_chembl_id>  (172) 
CHEMBL1862

>  <data_validity_comment>  (172) 
None

>  <published_value>  (172) 
4

>  <document_year>  (172) 
2009

>  <target_pref_name>  (172) 
Tyrosine-protein kinase ABL

>  <assay_chembl_id>  (172) 
CHEMBL963867

>  <standard_relation>  (172) 
=

>  <assay_description>  (172) 
Binding affinity to ABL

>  <published_relation>  (172) 
=

>  <standard_value>  (172) 
4000

>  <qudt_units>  (172) 
http://www.openphacts.org/units/Nanomolar

>  <target_tax_id>  (172) 
9606

>  <bao_label>  (172) 
single protein format

>  <published_units>  (172) 
uM

>  <pchembl_value>  (172) 
5.4

>  <published_type>  (172) 
IC50

>  <activity_comment>  (172) 
None

$$$$

     RDKit          

 38 42  0  0  0  0  0  0  0  0999 V2000
    0.0000    0.0000    0.0000 C   0  0  0  0  0  0  0  0  0  0  0  0
    0.0000    0.0000    0.0000 C   0  0  0  0  0  0  0  0  0  0  0  0
    0.0000    0.0000    0.0000 C   0  0  0  0  0  0  0  0  0  0  0  0
    0.0000    0.0000    0.0000 C   0  0  0  0  0  0  0  0  0  0  0  0
    0.0000    0.0000    0.0000 C   0  0  0  0  0  0  0  0  0  0  0  0
    0.0000    0.0000    0.0000 N   0  0  0  0  0  0  0  0  0  0  0  0
    0.0000    0.0000    0.0000 C   0  0  0  0  0  0  0  0  0  0  0  0
    0.0000    0.0000    0.0000 C   0  0  0  0  0  0  0  0  0  0  0  0
    0.0000    0.0000    0.0000 C   0  0  0  0  0  0  0  0  0  0  0  0
    0.0000    0.0000    0.0000 C   0  0  0  0  0  0  0  0  0  0  0  0
    0.0000    0.0000    0.0000 C   0  0  0  0  0  0  0  0  0  0  0  0
    0.0000    0.0000    0.0000 C   0  0  0  0  0  0  0  0  0  0  0  0
    0.0000    0.0000    0.0000 C   0  0  0  0  0  0  0  0  0  0  0  0
    0.0000    0.0000    0.0000 C   0  0  0  0  0  0  0  0  0  0  0  0
    0.0000    0.0000    0.0000 O   0  0  0  0  0  0  0  0  0  0  0  0
    0.0000    0.0000    0.0000 N   0  0  0  0  0  0  0  0  0  0  0  0
    0.0000    0.0000    0.0000 C   0  0  0  0  0  0  0  0  0  0  0  0
    0.0000    0.0000    0.0000 C   0  0  0  0  0  0  0  0  0  0  0  0
    0.0000    0.0000    0.0000 C   0  0  0  0  0  0  0  0  0  0  0  0
    0.0000    0.0000    0.0000 C   0  0  0  0  0  0  0  0  0  0  0  0
    0.0000    0.0000    0.0000 C   0  0  0  0  0  0  0  0  0  0  0  0
    0.0000    0.0000    0.0000 C   0  0  0  0  0  0  0  0  0  0  0  0
    0.0000    0.0000    0.0000 N   0  0  0  0  0  0  0  0  0  0  0  0
    0.0000    0.0000    0.0000 C   0  0  0  0  0  0  0  0  0  0  0  0
    0.0000    0.0000    0.0000 C   0  0  0  0  0  0  0  0  0  0  0  0
    0.0000    0.0000    0.0000 N   0  0  0  0  0  0  0  0  0  0  0  0
    0.0000    0.0000    0.0000 C   0  0  0  0  0  0  0  0  0  0  0  0
    0.0000    0.0000    0.0000 N   0  0  0  0  0  0  0  0  0  0  0  0
    0.0000    0.0000    0.0000 C   0  0  0  0  0  0  0  0  0  0  0  0
    0.0000    0.0000    0.0000 C   0  0  0  0  0  0  0  0  0  0  0  0
    0.0000    0.0000    0.0000 C   0  0  0  0  0  0  0  0  0  0  0  0
    0.0000    0.0000    0.0000 N   0  0  0  0  0  0  0  0  0  0  0  0
    0.0000    0.0000    0.0000 C   0  0  0  0  0  0  0  0  0  0  0  0
    0.0000    0.0000    0.0000 C   0  0  0  0  0  0  0  0  0  0  0  0
    0.0000    0.0000    0.0000 C   0  0  0  0  0  0  0  0  0  0  0  0
    0.0000    0.0000    0.0000 C   0  0  0  0  0  0  0  0  0  0  0  0
    0.0000    0.0000    0.0000 N   0  0  0  0  0  0  0  0  0  0  0  0
    0.0000    0.0000    0.0000 C   0  0  0  0  0  0  0  0  0  0  0  0
  1  2  1  0
  2  3  2  0
  3  4  1  0
  4  5  2  0
  5  6  1  0
  6  7  1  0
  7  8  1  0
  8  9  2  0
  9 10  1  0
 10 11  2  0
 11 12  1  0
 12 13  2  0
 11 14  1  0
 14 15  2  0
 14 16  1  0
 16 17  1  0
 17 18  2  0
 18 19  1  0
 19 20  2  0
 20 21  1  0
 21 22  2  0
 22 23  1  0
  5 24  1  0
 24 25  2  0
 25 26  1  0
 26 27  1  0
 27 28  2  0
 28 29  1  0
 29 30  2  0
 30 31  1  0
 31 32  2  0
 31 33  1  0
 33 34  2  0
 34 35  1  0
 35 36  2  0
 36 37  1  0
 37 38  2  0
 25  2  1  0
 13  8  1  0
 22 17  1  0
 32 27  1  0
 38 33  1  0
M  END
>  <pIC50>  (173) 
5.7

>  <ChEMBL_ID>  (173) 
CHEMBL475796

>  <document_journal>  (173) 
J. Med. Chem.

>  <bao_endpoint>  (173) 
BAO_0000190

>  <potential_duplicate>  (173) 
False

>  <uo_units>  (173) 
UO_0000065

>  <canonical_smiles>  (173) 
Cc1ccc(NCc2ccc(cc2)C(=O)Nc3ccccc3N)cc1Nc4nccc(n4)c5cccnc5

>  <parent_molecule_chembl_id>  (173) 
CHEMBL475796

>  <assay_type>  (173) 
B

>  <src_id>  (173) 
1

>  <ligand_efficiency>  (173) 
{u'le': u'0.2', u'bei': u'11.36', u'sei': u'4.84', u'lle': u'0.86'}

>  <standard_flag>  (173) 
True

>  <molecule_chembl_id>  (173) 
CHEMBL475796

>  <target_organism>  (173) 
Homo sapiens

>  <standard_units>  (173) 
nM

>  <record_id>  (173) 
753897

>  <document_chembl_id>  (173) 
CHEMBL1153406

>  <bao_format>  (173) 
BAO_0000357

>  <data_validity_description>  (173) 
None

>  <activity_id>  (173) 
2280430

>  <standard_type>  (173) 
IC50

>  <target_chembl_id>  (173) 
CHEMBL1862

>  <data_validity_comment>  (173) 
None

>  <published_value>  (173) 
2

>  <document_year>  (173) 
2009

>  <target_pref_name>  (173) 
Tyrosine-protein kinase ABL

>  <assay_chembl_id>  (173) 
CHEMBL1022422

>  <standard_relation>  (173) 
=

>  <assay_description>  (173) 
Inhibition of wild-type c-Abl by liquid scintillation counting

>  <published_relation>  (173) 
=

>  <standard_value>  (173) 
2000

>  <qudt_units>  (173) 
http://www.openphacts.org/units/Nanomolar

>  <target_tax_id>  (173) 
9606

>  <bao_label>  (173) 
single protein format

>  <published_units>  (173) 
uM

>  <pchembl_value>  (173) 
5.7

>  <published_type>  (173) 
IC50

>  <activity_comment>  (173) 
None

$$$$

     RDKit          

 33 36  0  0  0  0  0  0  0  0999 V2000
    0.0000    0.0000    0.0000 C   0  0  0  0  0  0  0  0  0  0  0  0
    0.0000    0.0000    0.0000 C   0  0  0  0  0  0  0  0  0  0  0  0
    0.0000    0.0000    0.0000 C   0  0  0  0  0  0  0  0  0  0  0  0
    0.0000    0.0000    0.0000 C   0  0  0  0  0  0  0  0  0  0  0  0
    0.0000    0.0000    0.0000 C   0  0  0  0  0  0  0  0  0  0  0  0
    0.0000    0.0000    0.0000 N   0  0  0  0  0  0  0  0  0  0  0  0
    0.0000    0.0000    0.0000 C   0  0  0  0  0  0  0  0  0  0  0  0
    0.0000    0.0000    0.0000 O   0  0  0  0  0  0  0  0  0  0  0  0
    0.0000    0.0000    0.0000 C   0  0  0  0  0  0  0  0  0  0  0  0
    0.0000    0.0000    0.0000 C   0  0  0  0  0  0  0  0  0  0  0  0
    0.0000    0.0000    0.0000 C   0  0  0  0  0  0  0  0  0  0  0  0
    0.0000    0.0000    0.0000 C   0  0  0  0  0  0  0  0  0  0  0  0
    0.0000    0.0000    0.0000 C   0  0  0  0  0  0  0  0  0  0  0  0
    0.0000    0.0000    0.0000 C   0  0  0  0  0  0  0  0  0  0  0  0
    0.0000    0.0000    0.0000 C   0  0  0  0  0  0  0  0  0  0  0  0
    0.0000    0.0000    0.0000 O   0  0  0  0  0  0  0  0  0  0  0  0
    0.0000    0.0000    0.0000 N   0  0  0  0  0  0  0  0  0  0  0  0
    0.0000    0.0000    0.0000 O   0  0  0  0  0  0  0  0  0  0  0  0
    0.0000    0.0000    0.0000 S   0  0  0  0  0  0  0  0  0  0  0  0
    0.0000    0.0000    0.0000 C   0  0  0  0  0  0  0  0  0  0  0  0
    0.0000    0.0000    0.0000 C   0  0  0  0  0  0  0  0  0  0  0  0
    0.0000    0.0000    0.0000 N   0  0  0  0  0  0  0  0  0  0  0  0
    0.0000    0.0000    0.0000 C   0  0  0  0  0  0  0  0  0  0  0  0
    0.0000    0.0000    0.0000 N   0  0  0  0  0  0  0  0  0  0  0  0
    0.0000    0.0000    0.0000 C   0  0  0  0  0  0  0  0  0  0  0  0
    0.0000    0.0000    0.0000 C   0  0  0  0  0  0  0  0  0  0  0  0
    0.0000    0.0000    0.0000 S   0  0  0  0  0  0  0  0  0  0  0  0
    0.0000    0.0000    0.0000 C   0  0  0  0  0  0  0  0  0  0  0  0
    0.0000    0.0000    0.0000 C   0  0  0  0  0  0  0  0  0  0  0  0
    0.0000    0.0000    0.0000 C   0  0  0  0  0  0  0  0  0  0  0  0
    0.0000    0.0000    0.0000 C   0  0  0  0  0  0  0  0  0  0  0  0
    0.0000    0.0000    0.0000 N   0  0  0  0  0  0  0  0  0  0  0  0
    0.0000    0.0000    0.0000 C   0  0  0  0  0  0  0  0  0  0  0  0
  1  2  1  0
  2  3  2  0
  3  4  1  0
  4  5  2  0
  5  6  1  0
  6  7  1  0
  7  8  2  0
  7  9  1  0
  9 10  2  0
 10 11  1  0
 11 12  2  0
 12 13  1  0
 13 14  2  0
 14 15  1  0
 15 16  2  0
 15 17  1  0
 17 18  1  0
 12 19  1  0
  5 20  1  0
 20 21  2  0
 21 22  1  0
 22 23  1  0
 23 24  2  0
 24 25  1  0
 25 26  2  0
 26 27  1  0
 26 28  1  0
 28 29  2  0
 29 30  1  0
 30 31  2  0
 31 32  1  0
 32 33  2  0
 21  2  1  0
 19  9  1  0
 27 23  1  0
 33 28  1  0
M  END
>  <pIC50>  (174) 
5.59

>  <ChEMBL_ID>  (174) 
CHEMBL493315

>  <document_journal>  (174) 
J. Med. Chem.

>  <bao_endpoint>  (174) 
BAO_0000190

>  <potential_duplicate>  (174) 
False

>  <uo_units>  (174) 
UO_0000065

>  <canonical_smiles>  (174) 
Cc1ccc(NC(=O)c2ccc(\C=C\C(=O)NO)s2)cc1Nc3ncc(s3)c4cccnc4

>  <parent_molecule_chembl_id>  (174) 
CHEMBL493315

>  <assay_type>  (174) 
B

>  <src_id>  (174) 
1

>  <ligand_efficiency>  (174) 
{u'le': u'0.23', u'bei': u'11.69', u'sei': u'3.23', u'lle': u'1.56'}

>  <standard_flag>  (174) 
True

>  <molecule_chembl_id>  (174) 
CHEMBL493315

>  <target_organism>  (174) 
Homo sapiens

>  <standard_units>  (174) 
nM

>  <record_id>  (174) 
754424

>  <document_chembl_id>  (174) 
CHEMBL1153406

>  <bao_format>  (174) 
BAO_0000357

>  <data_validity_description>  (174) 
None

>  <activity_id>  (174) 
2280437

>  <standard_type>  (174) 
IC50

>  <target_chembl_id>  (174) 
CHEMBL1862

>  <data_validity_comment>  (174) 
None

>  <published_value>  (174) 
2.6

>  <document_year>  (174) 
2009

>  <target_pref_name>  (174) 
Tyrosine-protein kinase ABL

>  <assay_chembl_id>  (174) 
CHEMBL1022422

>  <standard_relation>  (174) 
=

>  <assay_description>  (174) 
Inhibition of wild-type c-Abl by liquid scintillation counting

>  <published_relation>  (174) 
=

>  <standard_value>  (174) 
2600

>  <qudt_units>  (174) 
http://www.openphacts.org/units/Nanomolar

>  <target_tax_id>  (174) 
9606

>  <bao_label>  (174) 
single protein format

>  <published_units>  (174) 
uM

>  <pchembl_value>  (174) 
5.59

>  <published_type>  (174) 
IC50

>  <activity_comment>  (174) 
None

$$$$

     RDKit          

 34 37  0  0  0  0  0  0  0  0999 V2000
    0.0000    0.0000    0.0000 C   0  0  0  0  0  0  0  0  0  0  0  0
    0.0000    0.0000    0.0000 C   0  0  0  0  0  0  0  0  0  0  0  0
    0.0000    0.0000    0.0000 C   0  0  0  0  0  0  0  0  0  0  0  0
    0.0000    0.0000    0.0000 C   0  0  0  0  0  0  0  0  0  0  0  0
    0.0000    0.0000    0.0000 C   0  0  0  0  0  0  0  0  0  0  0  0
    0.0000    0.0000    0.0000 N   0  0  0  0  0  0  0  0  0  0  0  0
    0.0000    0.0000    0.0000 C   0  0  0  0  0  0  0  0  0  0  0  0
    0.0000    0.0000    0.0000 O   0  0  0  0  0  0  0  0  0  0  0  0
    0.0000    0.0000    0.0000 C   0  0  0  0  0  0  0  0  0  0  0  0
    0.0000    0.0000    0.0000 C   0  0  0  0  0  0  0  0  0  0  0  0
    0.0000    0.0000    0.0000 C   0  0  0  0  0  0  0  0  0  0  0  0
    0.0000    0.0000    0.0000 C   0  0  0  0  0  0  0  0  0  0  0  0
    0.0000    0.0000    0.0000 C   0  0  0  0  0  0  0  0  0  0  0  0
    0.0000    0.0000    0.0000 C   0  0  0  0  0  0  0  0  0  0  0  0
    0.0000    0.0000    0.0000 C   0  0  0  0  0  0  0  0  0  0  0  0
    0.0000    0.0000    0.0000 O   0  0  0  0  0  0  0  0  0  0  0  0
    0.0000    0.0000    0.0000 N   0  0  0  0  0  0  0  0  0  0  0  0
    0.0000    0.0000    0.0000 O   0  0  0  0  0  0  0  0  0  0  0  0
    0.0000    0.0000    0.0000 C   0  0  0  0  0  0  0  0  0  0  0  0
    0.0000    0.0000    0.0000 C   0  0  0  0  0  0  0  0  0  0  0  0
    0.0000    0.0000    0.0000 C   0  0  0  0  0  0  0  0  0  0  0  0
    0.0000    0.0000    0.0000 C   0  0  0  0  0  0  0  0  0  0  0  0
    0.0000    0.0000    0.0000 N   0  0  0  0  0  0  0  0  0  0  0  0
    0.0000    0.0000    0.0000 C   0  0  0  0  0  0  0  0  0  0  0  0
    0.0000    0.0000    0.0000 N   0  0  0  0  0  0  0  0  0  0  0  0
    0.0000    0.0000    0.0000 C   0  0  0  0  0  0  0  0  0  0  0  0
    0.0000    0.0000    0.0000 C   0  0  0  0  0  0  0  0  0  0  0  0
    0.0000    0.0000    0.0000 S   0  0  0  0  0  0  0  0  0  0  0  0
    0.0000    0.0000    0.0000 C   0  0  0  0  0  0  0  0  0  0  0  0
    0.0000    0.0000    0.0000 C   0  0  0  0  0  0  0  0  0  0  0  0
    0.0000    0.0000    0.0000 C   0  0  0  0  0  0  0  0  0  0  0  0
    0.0000    0.0000    0.0000 C   0  0  0  0  0  0  0  0  0  0  0  0
    0.0000    0.0000    0.0000 N   0  0  0  0  0  0  0  0  0  0  0  0
    0.0000    0.0000    0.0000 C   0  0  0  0  0  0  0  0  0  0  0  0
  1  2  1  0
  2  3  2  0
  3  4  1  0
  4  5  2  0
  5  6  1  0
  6  7  1  0
  7  8  2  0
  7  9  1  0
  9 10  2  0
 10 11  1  0
 11 12  2  0
 12 13  1  0
 13 14  2  0
 14 15  1  0
 15 16  2  0
 15 17  1  0
 17 18  1  0
 12 19  1  0
 19 20  2  0
  5 21  1  0
 21 22  2  0
 22 23  1  0
 23 24  1  0
 24 25  2  0
 25 26  1  0
 26 27  2  0
 27 28  1  0
 26 29  1  0
 29 30  2  0
 30 31  1  0
 31 32  2  0
 32 33  1  0
 33 34  2  0
 22  2  1  0
 20  9  1  0
 28 24  1  0
 34 29  1  0
M  END
>  <pIC50>  (175) 
5.57

>  <ChEMBL_ID>  (175) 
CHEMBL1080580

>  <document_journal>  (175) 
J. Med. Chem.

>  <bao_endpoint>  (175) 
BAO_0000190

>  <potential_duplicate>  (175) 
False

>  <uo_units>  (175) 
UO_0000065

>  <canonical_smiles>  (175) 
Cc1ccc(NC(=O)c2ccc(\C=C\C(=O)NO)cc2)cc1Nc3nc(cs3)c4cccnc4

>  <parent_molecule_chembl_id>  (175) 
CHEMBL1080580

>  <assay_type>  (175) 
B

>  <src_id>  (175) 
1

>  <ligand_efficiency>  (175) 
{u'le': u'0.22', u'bei': u'11.81', u'sei': u'3.85', u'lle': u'1.64'}

>  <standard_flag>  (175) 
True

>  <molecule_chembl_id>  (175) 
CHEMBL1080580

>  <target_organism>  (175) 
Homo sapiens

>  <standard_units>  (175) 
nM

>  <record_id>  (175) 
754320

>  <document_chembl_id>  (175) 
CHEMBL1153406

>  <bao_format>  (175) 
BAO_0000357

>  <data_validity_description>  (175) 
None

>  <activity_id>  (175) 
2280440

>  <standard_type>  (175) 
IC50

>  <target_chembl_id>  (175) 
CHEMBL1862

>  <data_validity_comment>  (175) 
None

>  <published_value>  (175) 
2.7

>  <document_year>  (175) 
2009

>  <target_pref_name>  (175) 
Tyrosine-protein kinase ABL

>  <assay_chembl_id>  (175) 
CHEMBL1022422

>  <standard_relation>  (175) 
=

>  <assay_description>  (175) 
Inhibition of wild-type c-Abl by liquid scintillation counting

>  <published_relation>  (175) 
=

>  <standard_value>  (175) 
2700

>  <qudt_units>  (175) 
http://www.openphacts.org/units/Nanomolar

>  <target_tax_id>  (175) 
9606

>  <bao_label>  (175) 
single protein format

>  <published_units>  (175) 
uM

>  <pchembl_value>  (175) 
5.57

>  <published_type>  (175) 
IC50

>  <activity_comment>  (175) 
None

$$$$

     RDKit          

 32 35  0  0  0  0  0  0  0  0999 V2000
    0.0000    0.0000    0.0000 O   0  0  0  0  0  0  0  0  0  0  0  0
    0.0000    0.0000    0.0000 N   0  0  0  0  0  0  0  0  0  0  0  0
    0.0000    0.0000    0.0000 C   0  0  0  0  0  0  0  0  0  0  0  0
    0.0000    0.0000    0.0000 O   0  0  0  0  0  0  0  0  0  0  0  0
    0.0000    0.0000    0.0000 C   0  0  0  0  0  0  0  0  0  0  0  0
    0.0000    0.0000    0.0000 C   0  0  0  0  0  0  0  0  0  0  0  0
    0.0000    0.0000    0.0000 C   0  0  0  0  0  0  0  0  0  0  0  0
    0.0000    0.0000    0.0000 C   0  0  0  0  0  0  0  0  0  0  0  0
    0.0000    0.0000    0.0000 C   0  0  0  0  0  0  0  0  0  0  0  0
    0.0000    0.0000    0.0000 C   0  0  0  0  0  0  0  0  0  0  0  0
    0.0000    0.0000    0.0000 S   0  0  0  0  0  0  0  0  0  0  0  0
    0.0000    0.0000    0.0000 C   0  0  0  0  0  0  0  0  0  0  0  0
    0.0000    0.0000    0.0000 O   0  0  0  0  0  0  0  0  0  0  0  0
    0.0000    0.0000    0.0000 N   0  0  0  0  0  0  0  0  0  0  0  0
    0.0000    0.0000    0.0000 C   0  0  0  0  0  0  0  0  0  0  0  0
    0.0000    0.0000    0.0000 C   0  0  0  0  0  0  0  0  0  0  0  0
    0.0000    0.0000    0.0000 C   0  0  0  0  0  0  0  0  0  0  0  0
    0.0000    0.0000    0.0000 C   0  0  0  0  0  0  0  0  0  0  0  0
    0.0000    0.0000    0.0000 C   0  0  0  0  0  0  0  0  0  0  0  0
    0.0000    0.0000    0.0000 N   0  0  0  0  0  0  0  0  0  0  0  0
    0.0000    0.0000    0.0000 C   0  0  0  0  0  0  0  0  0  0  0  0
    0.0000    0.0000    0.0000 N   0  0  0  0  0  0  0  0  0  0  0  0
    0.0000    0.0000    0.0000 C   0  0  0  0  0  0  0  0  0  0  0  0
    0.0000    0.0000    0.0000 C   0  0  0  0  0  0  0  0  0  0  0  0
    0.0000    0.0000    0.0000 S   0  0  0  0  0  0  0  0  0  0  0  0
    0.0000    0.0000    0.0000 C   0  0  0  0  0  0  0  0  0  0  0  0
    0.0000    0.0000    0.0000 C   0  0  0  0  0  0  0  0  0  0  0  0
    0.0000    0.0000    0.0000 C   0  0  0  0  0  0  0  0  0  0  0  0
    0.0000    0.0000    0.0000 C   0  0  0  0  0  0  0  0  0  0  0  0
    0.0000    0.0000    0.0000 N   0  0  0  0  0  0  0  0  0  0  0  0
    0.0000    0.0000    0.0000 C   0  0  0  0  0  0  0  0  0  0  0  0
    0.0000    0.0000    0.0000 C   0  0  0  0  0  0  0  0  0  0  0  0
  1  2  1  0
  2  3  1  0
  3  4  2  0
  3  5  1  0
  5  6  2  0
  6  7  1  0
  7  8  2  0
  8  9  1  0
  9 10  2  0
 10 11  1  0
 10 12  1  0
 12 13  2  0
 12 14  1  0
 14 15  1  0
 15 16  2  0
 16 17  1  0
 17 18  2  0
 18 19  1  0
 19 20  1  0
 20 21  1  0
 21 22  2  0
 22 23  1  0
 23 24  2  0
 24 25  1  0
 24 26  1  0
 26 27  2  0
 27 28  1  0
 28 29  2  0
 29 30  1  0
 30 31  2  0
 19 32  2  0
 11  7  1  0
 32 15  1  0
 25 21  1  0
 31 26  1  0
M  END
>  <pIC50>  (176) 
5.42

>  <ChEMBL_ID>  (176) 
CHEMBL523684

>  <document_journal>  (176) 
J. Med. Chem.

>  <bao_endpoint>  (176) 
BAO_0000190

>  <potential_duplicate>  (176) 
False

>  <uo_units>  (176) 
UO_0000065

>  <canonical_smiles>  (176) 
ONC(=O)\C=C\c1ccc(s1)C(=O)Nc2cccc(Nc3ncc(s3)c4cccnc4)c2

>  <parent_molecule_chembl_id>  (176) 
CHEMBL523684

>  <assay_type>  (176) 
B

>  <src_id>  (176) 
1

>  <ligand_efficiency>  (176) 
{u'le': u'0.23', u'bei': u'11.69', u'sei': u'3.14', u'lle': u'1.87'}

>  <standard_flag>  (176) 
True

>  <molecule_chembl_id>  (176) 
CHEMBL523684

>  <target_organism>  (176) 
Homo sapiens

>  <standard_units>  (176) 
nM

>  <record_id>  (176) 
754321

>  <document_chembl_id>  (176) 
CHEMBL1153406

>  <bao_format>  (176) 
BAO_0000357

>  <data_validity_description>  (176) 
None

>  <activity_id>  (176) 
2280450

>  <standard_type>  (176) 
IC50

>  <target_chembl_id>  (176) 
CHEMBL1862

>  <data_validity_comment>  (176) 
None

>  <published_value>  (176) 
3.8

>  <document_year>  (176) 
2009

>  <target_pref_name>  (176) 
Tyrosine-protein kinase ABL

>  <assay_chembl_id>  (176) 
CHEMBL1022422

>  <standard_relation>  (176) 
=

>  <assay_description>  (176) 
Inhibition of wild-type c-Abl by liquid scintillation counting

>  <published_relation>  (176) 
=

>  <standard_value>  (176) 
3800

>  <qudt_units>  (176) 
http://www.openphacts.org/units/Nanomolar

>  <target_tax_id>  (176) 
9606

>  <bao_label>  (176) 
single protein format

>  <published_units>  (176) 
uM

>  <pchembl_value>  (176) 
5.42

>  <published_type>  (176) 
IC50

>  <activity_comment>  (176) 
None

$$$$

     RDKit          

 33 36  0  0  0  0  0  0  0  0999 V2000
    0.0000    0.0000    0.0000 O   0  0  0  0  0  0  0  0  0  0  0  0
    0.0000    0.0000    0.0000 N   0  0  0  0  0  0  0  0  0  0  0  0
    0.0000    0.0000    0.0000 C   0  0  0  0  0  0  0  0  0  0  0  0
    0.0000    0.0000    0.0000 O   0  0  0  0  0  0  0  0  0  0  0  0
    0.0000    0.0000    0.0000 C   0  0  0  0  0  0  0  0  0  0  0  0
    0.0000    0.0000    0.0000 C   0  0  0  0  0  0  0  0  0  0  0  0
    0.0000    0.0000    0.0000 C   0  0  0  0  0  0  0  0  0  0  0  0
    0.0000    0.0000    0.0000 C   0  0  0  0  0  0  0  0  0  0  0  0
    0.0000    0.0000    0.0000 C   0  0  0  0  0  0  0  0  0  0  0  0
    0.0000    0.0000    0.0000 C   0  0  0  0  0  0  0  0  0  0  0  0
    0.0000    0.0000    0.0000 C   0  0  0  0  0  0  0  0  0  0  0  0
    0.0000    0.0000    0.0000 C   0  0  0  0  0  0  0  0  0  0  0  0
    0.0000    0.0000    0.0000 C   0  0  0  0  0  0  0  0  0  0  0  0
    0.0000    0.0000    0.0000 O   0  0  0  0  0  0  0  0  0  0  0  0
    0.0000    0.0000    0.0000 N   0  0  0  0  0  0  0  0  0  0  0  0
    0.0000    0.0000    0.0000 C   0  0  0  0  0  0  0  0  0  0  0  0
    0.0000    0.0000    0.0000 C   0  0  0  0  0  0  0  0  0  0  0  0
    0.0000    0.0000    0.0000 C   0  0  0  0  0  0  0  0  0  0  0  0
    0.0000    0.0000    0.0000 C   0  0  0  0  0  0  0  0  0  0  0  0
    0.0000    0.0000    0.0000 C   0  0  0  0  0  0  0  0  0  0  0  0
    0.0000    0.0000    0.0000 N   0  0  0  0  0  0  0  0  0  0  0  0
    0.0000    0.0000    0.0000 C   0  0  0  0  0  0  0  0  0  0  0  0
    0.0000    0.0000    0.0000 N   0  0  0  0  0  0  0  0  0  0  0  0
    0.0000    0.0000    0.0000 C   0  0  0  0  0  0  0  0  0  0  0  0
    0.0000    0.0000    0.0000 C   0  0  0  0  0  0  0  0  0  0  0  0
    0.0000    0.0000    0.0000 S   0  0  0  0  0  0  0  0  0  0  0  0
    0.0000    0.0000    0.0000 C   0  0  0  0  0  0  0  0  0  0  0  0
    0.0000    0.0000    0.0000 C   0  0  0  0  0  0  0  0  0  0  0  0
    0.0000    0.0000    0.0000 C   0  0  0  0  0  0  0  0  0  0  0  0
    0.0000    0.0000    0.0000 C   0  0  0  0  0  0  0  0  0  0  0  0
    0.0000    0.0000    0.0000 N   0  0  0  0  0  0  0  0  0  0  0  0
    0.0000    0.0000    0.0000 C   0  0  0  0  0  0  0  0  0  0  0  0
    0.0000    0.0000    0.0000 C   0  0  0  0  0  0  0  0  0  0  0  0
  1  2  1  0
  2  3  1  0
  3  4  2  0
  3  5  1  0
  5  6  2  0
  6  7  1  0
  7  8  2  0
  8  9  1  0
  9 10  2  0
 10 11  1  0
 11 12  2  0
 10 13  1  0
 13 14  2  0
 13 15  1  0
 15 16  1  0
 16 17  2  0
 17 18  1  0
 18 19  2  0
 19 20  1  0
 20 21  1  0
 21 22  1  0
 22 23  2  0
 23 24  1  0
 24 25  2  0
 25 26  1  0
 25 27  1  0
 27 28  2  0
 28 29  1  0
 29 30  2  0
 30 31  1  0
 31 32  2  0
 20 33  2  0
 12  7  1  0
 33 16  1  0
 26 22  1  0
 32 27  1  0
M  END
>  <pIC50>  (177) 
5.35

>  <ChEMBL_ID>  (177) 
CHEMBL492956

>  <document_journal>  (177) 
J. Med. Chem.

>  <bao_endpoint>  (177) 
BAO_0000190

>  <potential_duplicate>  (177) 
False

>  <uo_units>  (177) 
UO_0000065

>  <canonical_smiles>  (177) 
ONC(=O)\C=C\c1ccc(cc1)C(=O)Nc2cccc(Nc3ncc(s3)c4cccnc4)c2

>  <parent_molecule_chembl_id>  (177) 
CHEMBL492956

>  <assay_type>  (177) 
B

>  <src_id>  (177) 
1

>  <ligand_efficiency>  (177) 
{u'le': u'0.22', u'bei': u'11.69', u'sei': u'3.7', u'lle': u'2.05'}

>  <standard_flag>  (177) 
True

>  <molecule_chembl_id>  (177) 
CHEMBL492956

>  <target_organism>  (177) 
Homo sapiens

>  <standard_units>  (177) 
nM

>  <record_id>  (177) 
754319

>  <document_chembl_id>  (177) 
CHEMBL1153406

>  <bao_format>  (177) 
BAO_0000357

>  <data_validity_description>  (177) 
None

>  <activity_id>  (177) 
2280456

>  <standard_type>  (177) 
IC50

>  <target_chembl_id>  (177) 
CHEMBL1862

>  <data_validity_comment>  (177) 
None

>  <published_value>  (177) 
4.5

>  <document_year>  (177) 
2009

>  <target_pref_name>  (177) 
Tyrosine-protein kinase ABL

>  <assay_chembl_id>  (177) 
CHEMBL1022422

>  <standard_relation>  (177) 
=

>  <assay_description>  (177) 
Inhibition of wild-type c-Abl by liquid scintillation counting

>  <published_relation>  (177) 
=

>  <standard_value>  (177) 
4500

>  <qudt_units>  (177) 
http://www.openphacts.org/units/Nanomolar

>  <target_tax_id>  (177) 
9606

>  <bao_label>  (177) 
single protein format

>  <published_units>  (177) 
uM

>  <pchembl_value>  (177) 
5.35

>  <published_type>  (177) 
IC50

>  <activity_comment>  (177) 
None

$$$$

     RDKit          

 39 43  0  0  0  0  0  0  0  0999 V2000
    0.0000    0.0000    0.0000 C   0  0  0  0  0  0  0  0  0  0  0  0
    0.0000    0.0000    0.0000 C   0  0  0  0  0  0  0  0  0  0  0  0
    0.0000    0.0000    0.0000 C   0  0  0  0  0  0  0  0  0  0  0  0
    0.0000    0.0000    0.0000 C   0  0  0  0  0  0  0  0  0  0  0  0
    0.0000    0.0000    0.0000 C   0  0  0  0  0  0  0  0  0  0  0  0
    0.0000    0.0000    0.0000 N   0  0  0  0  0  0  0  0  0  0  0  0
    0.0000    0.0000    0.0000 C   0  0  0  0  0  0  0  0  0  0  0  0
    0.0000    0.0000    0.0000 O   0  0  0  0  0  0  0  0  0  0  0  0
    0.0000    0.0000    0.0000 C   0  0  0  0  0  0  0  0  0  0  0  0
    0.0000    0.0000    0.0000 C   0  0  0  0  0  0  0  0  0  0  0  0
    0.0000    0.0000    0.0000 C   0  0  0  0  0  0  0  0  0  0  0  0
    0.0000    0.0000    0.0000 C   0  0  0  0  0  0  0  0  0  0  0  0
    0.0000    0.0000    0.0000 C   0  0  0  0  0  0  0  0  0  0  0  0
    0.0000    0.0000    0.0000 C   0  0  0  0  0  0  0  0  0  0  0  0
    0.0000    0.0000    0.0000 C   0  0  0  0  0  0  0  0  0  0  0  0
    0.0000    0.0000    0.0000 O   0  0  0  0  0  0  0  0  0  0  0  0
    0.0000    0.0000    0.0000 N   0  0  0  0  0  0  0  0  0  0  0  0
    0.0000    0.0000    0.0000 C   0  0  0  0  0  0  0  0  0  0  0  0
    0.0000    0.0000    0.0000 C   0  0  0  0  0  0  0  0  0  0  0  0
    0.0000    0.0000    0.0000 C   0  0  0  0  0  0  0  0  0  0  0  0
    0.0000    0.0000    0.0000 C   0  0  0  0  0  0  0  0  0  0  0  0
    0.0000    0.0000    0.0000 C   0  0  0  0  0  0  0  0  0  0  0  0
    0.0000    0.0000    0.0000 C   0  0  0  0  0  0  0  0  0  0  0  0
    0.0000    0.0000    0.0000 N   0  0  0  0  0  0  0  0  0  0  0  0
    0.0000    0.0000    0.0000 C   0  0  0  0  0  0  0  0  0  0  0  0
    0.0000    0.0000    0.0000 C   0  0  0  0  0  0  0  0  0  0  0  0
    0.0000    0.0000    0.0000 N   0  0  0  0  0  0  0  0  0  0  0  0
    0.0000    0.0000    0.0000 C   0  0  0  0  0  0  0  0  0  0  0  0
    0.0000    0.0000    0.0000 N   0  0  0  0  0  0  0  0  0  0  0  0
    0.0000    0.0000    0.0000 C   0  0  0  0  0  0  0  0  0  0  0  0
    0.0000    0.0000    0.0000 C   0  0  0  0  0  0  0  0  0  0  0  0
    0.0000    0.0000    0.0000 C   0  0  0  0  0  0  0  0  0  0  0  0
    0.0000    0.0000    0.0000 N   0  0  0  0  0  0  0  0  0  0  0  0
    0.0000    0.0000    0.0000 C   0  0  0  0  0  0  0  0  0  0  0  0
    0.0000    0.0000    0.0000 C   0  0  0  0  0  0  0  0  0  0  0  0
    0.0000    0.0000    0.0000 C   0  0  0  0  0  0  0  0  0  0  0  0
    0.0000    0.0000    0.0000 C   0  0  0  0  0  0  0  0  0  0  0  0
    0.0000    0.0000    0.0000 N   0  0  0  0  0  0  0  0  0  0  0  0
    0.0000    0.0000    0.0000 C   0  0  0  0  0  0  0  0  0  0  0  0
  1  2  1  0
  2  3  2  0
  3  4  1  0
  4  5  2  0
  5  6  1  0
  6  7  1  0
  7  8  2  0
  7  9  1  0
  9 10  2  0
 10 11  1  0
 11 12  2  0
 12 13  1  0
 13 14  2  0
 12 15  1  0
 15 16  2  0
 15 17  1  0
 17 18  1  0
 18 19  2  0
 19 20  1  0
 20 21  2  0
 21 22  1  0
 22 23  2  0
 23 24  1  0
  5 25  1  0
 25 26  2  0
 26 27  1  0
 27 28  1  0
 28 29  2  0
 29 30  1  0
 30 31  2  0
 31 32  1  0
 32 33  2  0
 31 34  1  0
 34 35  2  0
 35 36  1  0
 36 37  2  0
 37 38  1  0
 38 39  2  0
 26  2  1  0
 14  9  1  0
 23 18  1  0
 33 28  1  0
 39 34  1  0
M  END
>  <pIC50>  (178) 
5.28

>  <ChEMBL_ID>  (178) 
CHEMBL475820

>  <document_journal>  (178) 
J. Med. Chem.

>  <bao_endpoint>  (178) 
BAO_0000190

>  <potential_duplicate>  (178) 
False

>  <uo_units>  (178) 
UO_0000065

>  <canonical_smiles>  (178) 
Cc1ccc(NC(=O)c2ccc(cc2)C(=O)Nc3ccccc3N)cc1Nc4ncc(cn4)c5cccnc5

>  <parent_molecule_chembl_id>  (178) 
CHEMBL475820

>  <assay_type>  (178) 
B

>  <src_id>  (178) 
1

>  <ligand_efficiency>  (178) 
{u'le': u'0.18', u'bei': u'10.23', u'sei': u'3.91', u'lle': u'1.48'}

>  <standard_flag>  (178) 
True

>  <molecule_chembl_id>  (178) 
CHEMBL475820

>  <target_organism>  (178) 
Homo sapiens

>  <standard_units>  (178) 
nM

>  <record_id>  (178) 
753985

>  <document_chembl_id>  (178) 
CHEMBL1153406

>  <bao_format>  (178) 
BAO_0000357

>  <data_validity_description>  (178) 
None

>  <activity_id>  (178) 
2280458

>  <standard_type>  (178) 
IC50

>  <target_chembl_id>  (178) 
CHEMBL1862

>  <data_validity_comment>  (178) 
None

>  <published_value>  (178) 
5.3

>  <document_year>  (178) 
2009

>  <target_pref_name>  (178) 
Tyrosine-protein kinase ABL

>  <assay_chembl_id>  (178) 
CHEMBL1022422

>  <standard_relation>  (178) 
=

>  <assay_description>  (178) 
Inhibition of wild-type c-Abl by liquid scintillation counting

>  <published_relation>  (178) 
=

>  <standard_value>  (178) 
5300

>  <qudt_units>  (178) 
http://www.openphacts.org/units/Nanomolar

>  <target_tax_id>  (178) 
9606

>  <bao_label>  (178) 
single protein format

>  <published_units>  (178) 
uM

>  <pchembl_value>  (178) 
5.28

>  <published_type>  (178) 
IC50

>  <activity_comment>  (178) 
None

$$$$

     RDKit          

 38 42  0  0  0  0  0  0  0  0999 V2000
    0.0000    0.0000    0.0000 N   0  0  0  0  0  0  0  0  0  0  0  0
    0.0000    0.0000    0.0000 C   0  0  0  0  0  0  0  0  0  0  0  0
    0.0000    0.0000    0.0000 C   0  0  0  0  0  0  0  0  0  0  0  0
    0.0000    0.0000    0.0000 C   0  0  0  0  0  0  0  0  0  0  0  0
    0.0000    0.0000    0.0000 C   0  0  0  0  0  0  0  0  0  0  0  0
    0.0000    0.0000    0.0000 C   0  0  0  0  0  0  0  0  0  0  0  0
    0.0000    0.0000    0.0000 C   0  0  0  0  0  0  0  0  0  0  0  0
    0.0000    0.0000    0.0000 N   0  0  0  0  0  0  0  0  0  0  0  0
    0.0000    0.0000    0.0000 C   0  0  0  0  0  0  0  0  0  0  0  0
    0.0000    0.0000    0.0000 O   0  0  0  0  0  0  0  0  0  0  0  0
    0.0000    0.0000    0.0000 C   0  0  0  0  0  0  0  0  0  0  0  0
    0.0000    0.0000    0.0000 C   0  0  0  0  0  0  0  0  0  0  0  0
    0.0000    0.0000    0.0000 C   0  0  0  0  0  0  0  0  0  0  0  0
    0.0000    0.0000    0.0000 C   0  0  0  0  0  0  0  0  0  0  0  0
    0.0000    0.0000    0.0000 C   0  0  0  0  0  0  0  0  0  0  0  0
    0.0000    0.0000    0.0000 C   0  0  0  0  0  0  0  0  0  0  0  0
    0.0000    0.0000    0.0000 C   0  0  0  0  0  0  0  0  0  0  0  0
    0.0000    0.0000    0.0000 O   0  0  0  0  0  0  0  0  0  0  0  0
    0.0000    0.0000    0.0000 N   0  0  0  0  0  0  0  0  0  0  0  0
    0.0000    0.0000    0.0000 C   0  0  0  0  0  0  0  0  0  0  0  0
    0.0000    0.0000    0.0000 C   0  0  0  0  0  0  0  0  0  0  0  0
    0.0000    0.0000    0.0000 C   0  0  0  0  0  0  0  0  0  0  0  0
    0.0000    0.0000    0.0000 C   0  0  0  0  0  0  0  0  0  0  0  0
    0.0000    0.0000    0.0000 C   0  0  0  0  0  0  0  0  0  0  0  0
    0.0000    0.0000    0.0000 N   0  0  0  0  0  0  0  0  0  0  0  0
    0.0000    0.0000    0.0000 C   0  0  0  0  0  0  0  0  0  0  0  0
    0.0000    0.0000    0.0000 N   0  0  0  0  0  0  0  0  0  0  0  0
    0.0000    0.0000    0.0000 C   0  0  0  0  0  0  0  0  0  0  0  0
    0.0000    0.0000    0.0000 C   0  0  0  0  0  0  0  0  0  0  0  0
    0.0000    0.0000    0.0000 C   0  0  0  0  0  0  0  0  0  0  0  0
    0.0000    0.0000    0.0000 N   0  0  0  0  0  0  0  0  0  0  0  0
    0.0000    0.0000    0.0000 C   0  0  0  0  0  0  0  0  0  0  0  0
    0.0000    0.0000    0.0000 C   0  0  0  0  0  0  0  0  0  0  0  0
    0.0000    0.0000    0.0000 C   0  0  0  0  0  0  0  0  0  0  0  0
    0.0000    0.0000    0.0000 C   0  0  0  0  0  0  0  0  0  0  0  0
    0.0000    0.0000    0.0000 N   0  0  0  0  0  0  0  0  0  0  0  0
    0.0000    0.0000    0.0000 C   0  0  0  0  0  0  0  0  0  0  0  0
    0.0000    0.0000    0.0000 C   0  0  0  0  0  0  0  0  0  0  0  0
  1  2  1  0
  2  3  2  0
  3  4  1  0
  4  5  2  0
  5  6  1  0
  6  7  2  0
  7  8  1  0
  8  9  1  0
  9 10  2  0
  9 11  1  0
 11 12  2  0
 12 13  1  0
 13 14  2  0
 14 15  1  0
 15 16  2  0
 14 17  1  0
 17 18  2  0
 17 19  1  0
 19 20  1  0
 20 21  2  0
 21 22  1  0
 22 23  2  0
 23 24  1  0
 24 25  1  0
 25 26  1  0
 26 27  2  0
 27 28  1  0
 28 29  2  0
 29 30  1  0
 30 31  2  0
 29 32  1  0
 32 33  2  0
 33 34  1  0
 34 35  2  0
 35 36  1  0
 36 37  2  0
 24 38  2  0
  7  2  1  0
 16 11  1  0
 38 20  1  0
 31 26  1  0
 37 32  1  0
M  END
>  <pIC50>  (179) 
5.11

>  <ChEMBL_ID>  (179) 
CHEMBL473826

>  <document_journal>  (179) 
J. Med. Chem.

>  <bao_endpoint>  (179) 
BAO_0000190

>  <potential_duplicate>  (179) 
False

>  <uo_units>  (179) 
UO_0000065

>  <canonical_smiles>  (179) 
Nc1ccccc1NC(=O)c2ccc(cc2)C(=O)Nc3cccc(Nc4ncc(cn4)c5cccnc5)c3

>  <parent_molecule_chembl_id>  (179) 
CHEMBL473826

>  <assay_type>  (179) 
B

>  <src_id>  (179) 
1

>  <ligand_efficiency>  (179) 
{u'le': u'0.18', u'bei': u'10.18', u'sei': u'3.79', u'lle': u'1.8'}

>  <standard_flag>  (179) 
True

>  <molecule_chembl_id>  (179) 
CHEMBL473826

>  <target_organism>  (179) 
Homo sapiens

>  <standard_units>  (179) 
nM

>  <record_id>  (179) 
754070

>  <document_chembl_id>  (179) 
CHEMBL1153406

>  <bao_format>  (179) 
BAO_0000357

>  <data_validity_description>  (179) 
None

>  <activity_id>  (179) 
2280463

>  <standard_type>  (179) 
IC50

>  <target_chembl_id>  (179) 
CHEMBL1862

>  <data_validity_comment>  (179) 
None

>  <published_value>  (179) 
7.8

>  <document_year>  (179) 
2009

>  <target_pref_name>  (179) 
Tyrosine-protein kinase ABL

>  <assay_chembl_id>  (179) 
CHEMBL1022422

>  <standard_relation>  (179) 
=

>  <assay_description>  (179) 
Inhibition of wild-type c-Abl by liquid scintillation counting

>  <published_relation>  (179) 
=

>  <standard_value>  (179) 
7800

>  <qudt_units>  (179) 
http://www.openphacts.org/units/Nanomolar

>  <target_tax_id>  (179) 
9606

>  <bao_label>  (179) 
single protein format

>  <published_units>  (179) 
uM

>  <pchembl_value>  (179) 
5.11

>  <published_type>  (179) 
IC50

>  <activity_comment>  (179) 
None

$$$$

     RDKit          

 32 35  0  0  0  0  0  0  0  0999 V2000
    0.0000    0.0000    0.0000 C   0  0  0  0  0  0  0  0  0  0  0  0
    0.0000    0.0000    0.0000 C   0  0  0  0  0  0  0  0  0  0  0  0
    0.0000    0.0000    0.0000 C   0  0  0  0  0  0  0  0  0  0  0  0
    0.0000    0.0000    0.0000 C   0  0  0  0  0  0  0  0  0  0  0  0
    0.0000    0.0000    0.0000 C   0  0  0  0  0  0  0  0  0  0  0  0
    0.0000    0.0000    0.0000 N   0  0  0  0  0  0  0  0  0  0  0  0
    0.0000    0.0000    0.0000 C   0  0  0  0  0  0  0  0  0  0  0  0
    0.0000    0.0000    0.0000 O   0  0  0  0  0  0  0  0  0  0  0  0
    0.0000    0.0000    0.0000 C   0  0  0  0  0  0  0  0  0  0  0  0
    0.0000    0.0000    0.0000 C   0  0  0  0  0  0  0  0  0  0  0  0
    0.0000    0.0000    0.0000 C   0  0  0  0  0  0  0  0  0  0  0  0
    0.0000    0.0000    0.0000 C   0  0  0  0  0  0  0  0  0  0  0  0
    0.0000    0.0000    0.0000 C   0  0  0  0  0  0  0  0  0  0  0  0
    0.0000    0.0000    0.0000 C   0  0  0  0  0  0  0  0  0  0  0  0
    0.0000    0.0000    0.0000 C   0  0  0  0  0  0  0  0  0  0  0  0
    0.0000    0.0000    0.0000 O   0  0  0  0  0  0  0  0  0  0  0  0
    0.0000    0.0000    0.0000 N   0  0  0  0  0  0  0  0  0  0  0  0
    0.0000    0.0000    0.0000 O   0  0  0  0  0  0  0  0  0  0  0  0
    0.0000    0.0000    0.0000 C   0  0  0  0  0  0  0  0  0  0  0  0
    0.0000    0.0000    0.0000 C   0  0  0  0  0  0  0  0  0  0  0  0
    0.0000    0.0000    0.0000 N   0  0  0  0  0  0  0  0  0  0  0  0
    0.0000    0.0000    0.0000 C   0  0  0  0  0  0  0  0  0  0  0  0
    0.0000    0.0000    0.0000 N   0  0  0  0  0  0  0  0  0  0  0  0
    0.0000    0.0000    0.0000 C   0  0  0  0  0  0  0  0  0  0  0  0
    0.0000    0.0000    0.0000 C   0  0  0  0  0  0  0  0  0  0  0  0
    0.0000    0.0000    0.0000 S   0  0  0  0  0  0  0  0  0  0  0  0
    0.0000    0.0000    0.0000 C   0  0  0  0  0  0  0  0  0  0  0  0
    0.0000    0.0000    0.0000 C   0  0  0  0  0  0  0  0  0  0  0  0
    0.0000    0.0000    0.0000 C   0  0  0  0  0  0  0  0  0  0  0  0
    0.0000    0.0000    0.0000 C   0  0  0  0  0  0  0  0  0  0  0  0
    0.0000    0.0000    0.0000 N   0  0  0  0  0  0  0  0  0  0  0  0
    0.0000    0.0000    0.0000 C   0  0  0  0  0  0  0  0  0  0  0  0
  1  2  1  0
  2  3  2  0
  3  4  1  0
  4  5  2  0
  5  6  1  0
  6  7  1  0
  7  8  2  0
  7  9  1  0
  9 10  2  0
 10 11  1  0
 11 12  2  0
 12 13  1  0
 13 14  2  0
 12 15  1  0
 15 16  2  0
 15 17  1  0
 17 18  1  0
  5 19  1  0
 19 20  2  0
 20 21  1  0
 21 22  1  0
 22 23  2  0
 23 24  1  0
 24 25  2  0
 25 26  1  0
 25 27  1  0
 27 28  2  0
 28 29  1  0
 29 30  2  0
 30 31  1  0
 31 32  2  0
 20  2  1  0
 14  9  1  0
 26 22  1  0
 32 27  1  0
M  END
>  <pIC50>  (180) 
5.05

>  <ChEMBL_ID>  (180) 
CHEMBL521652

>  <document_journal>  (180) 
J. Med. Chem.

>  <bao_endpoint>  (180) 
BAO_0000190

>  <potential_duplicate>  (180) 
False

>  <uo_units>  (180) 
UO_0000065

>  <canonical_smiles>  (180) 
Cc1ccc(NC(=O)c2ccc(cc2)C(=O)NO)cc1Nc3ncc(s3)c4cccnc4

>  <parent_molecule_chembl_id>  (180) 
CHEMBL521652

>  <assay_type>  (180) 
B

>  <src_id>  (180) 
1

>  <ligand_efficiency>  (180) 
{u'le': u'0.22', u'bei': u'11.34', u'sei': u'3.5', u'lle': u'1.73'}

>  <standard_flag>  (180) 
True

>  <molecule_chembl_id>  (180) 
CHEMBL521652

>  <target_organism>  (180) 
Homo sapiens

>  <standard_units>  (180) 
nM

>  <record_id>  (180) 
754318

>  <document_chembl_id>  (180) 
CHEMBL1153406

>  <bao_format>  (180) 
BAO_0000357

>  <data_validity_description>  (180) 
None

>  <activity_id>  (180) 
2280466

>  <standard_type>  (180) 
IC50

>  <target_chembl_id>  (180) 
CHEMBL1862

>  <data_validity_comment>  (180) 
None

>  <published_value>  (180) 
8.9

>  <document_year>  (180) 
2009

>  <target_pref_name>  (180) 
Tyrosine-protein kinase ABL

>  <assay_chembl_id>  (180) 
CHEMBL1022422

>  <standard_relation>  (180) 
=

>  <assay_description>  (180) 
Inhibition of wild-type c-Abl by liquid scintillation counting

>  <published_relation>  (180) 
=

>  <standard_value>  (180) 
8900

>  <qudt_units>  (180) 
http://www.openphacts.org/units/Nanomolar

>  <target_tax_id>  (180) 
9606

>  <bao_label>  (180) 
single protein format

>  <published_units>  (180) 
uM

>  <pchembl_value>  (180) 
5.05

>  <published_type>  (180) 
IC50

>  <activity_comment>  (180) 
None

$$$$

     RDKit          

 34 37  0  0  0  0  0  0  0  0999 V2000
    0.0000    0.0000    0.0000 C   0  0  0  0  0  0  0  0  0  0  0  0
    0.0000    0.0000    0.0000 C   0  0  0  0  0  0  0  0  0  0  0  0
    0.0000    0.0000    0.0000 C   0  0  0  0  0  0  0  0  0  0  0  0
    0.0000    0.0000    0.0000 C   0  0  0  0  0  0  0  0  0  0  0  0
    0.0000    0.0000    0.0000 C   0  0  0  0  0  0  0  0  0  0  0  0
    0.0000    0.0000    0.0000 N   0  0  0  0  0  0  0  0  0  0  0  0
    0.0000    0.0000    0.0000 C   0  0  0  0  0  0  0  0  0  0  0  0
    0.0000    0.0000    0.0000 C   0  0  0  0  0  0  0  0  0  0  0  0
    0.0000    0.0000    0.0000 C   0  0  0  0  0  0  0  0  0  0  0  0
    0.0000    0.0000    0.0000 C   0  0  0  0  0  0  0  0  0  0  0  0
    0.0000    0.0000    0.0000 C   0  0  0  0  0  0  0  0  0  0  0  0
    0.0000    0.0000    0.0000 C   0  0  0  0  0  0  0  0  0  0  0  0
    0.0000    0.0000    0.0000 C   0  0  0  0  0  0  0  0  0  0  0  0
    0.0000    0.0000    0.0000 C   0  0  0  0  0  0  0  0  0  0  0  0
    0.0000    0.0000    0.0000 O   0  0  0  0  0  0  0  0  0  0  0  0
    0.0000    0.0000    0.0000 N   0  0  0  0  0  0  0  0  0  0  0  0
    0.0000    0.0000    0.0000 O   0  0  0  0  0  0  0  0  0  0  0  0
    0.0000    0.0000    0.0000 C   0  0  0  0  0  0  0  0  0  0  0  0
    0.0000    0.0000    0.0000 C   0  0  0  0  0  0  0  0  0  0  0  0
    0.0000    0.0000    0.0000 C   0  0  0  0  0  0  0  0  0  0  0  0
    0.0000    0.0000    0.0000 C   0  0  0  0  0  0  0  0  0  0  0  0
    0.0000    0.0000    0.0000 N   0  0  0  0  0  0  0  0  0  0  0  0
    0.0000    0.0000    0.0000 C   0  0  0  0  0  0  0  0  0  0  0  0
    0.0000    0.0000    0.0000 N   0  0  0  0  0  0  0  0  0  0  0  0
    0.0000    0.0000    0.0000 C   0  0  0  0  0  0  0  0  0  0  0  0
    0.0000    0.0000    0.0000 C   0  0  0  0  0  0  0  0  0  0  0  0
    0.0000    0.0000    0.0000 C   0  0  0  0  0  0  0  0  0  0  0  0
    0.0000    0.0000    0.0000 N   0  0  0  0  0  0  0  0  0  0  0  0
    0.0000    0.0000    0.0000 C   0  0  0  0  0  0  0  0  0  0  0  0
    0.0000    0.0000    0.0000 C   0  0  0  0  0  0  0  0  0  0  0  0
    0.0000    0.0000    0.0000 C   0  0  0  0  0  0  0  0  0  0  0  0
    0.0000    0.0000    0.0000 C   0  0  0  0  0  0  0  0  0  0  0  0
    0.0000    0.0000    0.0000 N   0  0  0  0  0  0  0  0  0  0  0  0
    0.0000    0.0000    0.0000 C   0  0  0  0  0  0  0  0  0  0  0  0
  1  2  1  0
  2  3  2  0
  3  4  1  0
  4  5  2  0
  5  6  1  0
  6  7  1  0
  7  8  1  0
  8  9  2  0
  9 10  1  0
 10 11  2  0
 11 12  1  0
 12 13  2  0
 13 14  1  0
 14 15  2  0
 14 16  1  0
 16 17  1  0
 11 18  1  0
 18 19  2  0
  5 20  1  0
 20 21  2  0
 21 22  1  0
 22 23  1  0
 23 24  2  0
 24 25  1  0
 25 26  2  0
 26 27  1  0
 27 28  2  0
 27 29  1  0
 29 30  2  0
 30 31  1  0
 31 32  2  0
 32 33  1  0
 33 34  2  0
 21  2  1  0
 19  8  1  0
 28 23  1  0
 34 29  1  0
M  END
>  <pIC50>  (181) 
5.04

>  <ChEMBL_ID>  (181) 
CHEMBL514351

>  <document_journal>  (181) 
J. Med. Chem.

>  <bao_endpoint>  (181) 
BAO_0000190

>  <potential_duplicate>  (181) 
False

>  <uo_units>  (181) 
UO_0000065

>  <canonical_smiles>  (181) 
Cc1ccc(NCc2ccc(\C=C\C(=O)NO)cc2)cc1Nc3nccc(n3)c4cccnc4

>  <parent_molecule_chembl_id>  (181) 
CHEMBL514351

>  <assay_type>  (181) 
B

>  <src_id>  (181) 
1

>  <ligand_efficiency>  (181) 
{u'le': u'0.2', u'bei': u'11.13', u'sei': u'4.49', u'lle': u'0.76'}

>  <standard_flag>  (181) 
True

>  <molecule_chembl_id>  (181) 
CHEMBL514351

>  <target_organism>  (181) 
Homo sapiens

>  <standard_units>  (181) 
nM

>  <record_id>  (181) 
753898

>  <document_chembl_id>  (181) 
CHEMBL1153406

>  <bao_format>  (181) 
BAO_0000357

>  <data_validity_description>  (181) 
None

>  <activity_id>  (181) 
2280468

>  <standard_type>  (181) 
IC50

>  <target_chembl_id>  (181) 
CHEMBL1862

>  <data_validity_comment>  (181) 
None

>  <published_value>  (181) 
9.2

>  <document_year>  (181) 
2009

>  <target_pref_name>  (181) 
Tyrosine-protein kinase ABL

>  <assay_chembl_id>  (181) 
CHEMBL1022422

>  <standard_relation>  (181) 
=

>  <assay_description>  (181) 
Inhibition of wild-type c-Abl by liquid scintillation counting

>  <published_relation>  (181) 
=

>  <standard_value>  (181) 
9200

>  <qudt_units>  (181) 
http://www.openphacts.org/units/Nanomolar

>  <target_tax_id>  (181) 
9606

>  <bao_label>  (181) 
single protein format

>  <published_units>  (181) 
uM

>  <pchembl_value>  (181) 
5.04

>  <published_type>  (181) 
IC50

>  <activity_comment>  (181) 
None

$$$$

     RDKit          

 31 34  0  0  0  0  0  0  0  0999 V2000
    0.0000    0.0000    0.0000 O   0  0  0  0  0  0  0  0  0  0  0  0
    0.0000    0.0000    0.0000 N   0  0  0  0  0  0  0  0  0  0  0  0
    0.0000    0.0000    0.0000 C   0  0  0  0  0  0  0  0  0  0  0  0
    0.0000    0.0000    0.0000 O   0  0  0  0  0  0  0  0  0  0  0  0
    0.0000    0.0000    0.0000 C   0  0  0  0  0  0  0  0  0  0  0  0
    0.0000    0.0000    0.0000 C   0  0  0  0  0  0  0  0  0  0  0  0
    0.0000    0.0000    0.0000 C   0  0  0  0  0  0  0  0  0  0  0  0
    0.0000    0.0000    0.0000 C   0  0  0  0  0  0  0  0  0  0  0  0
    0.0000    0.0000    0.0000 C   0  0  0  0  0  0  0  0  0  0  0  0
    0.0000    0.0000    0.0000 C   0  0  0  0  0  0  0  0  0  0  0  0
    0.0000    0.0000    0.0000 C   0  0  0  0  0  0  0  0  0  0  0  0
    0.0000    0.0000    0.0000 O   0  0  0  0  0  0  0  0  0  0  0  0
    0.0000    0.0000    0.0000 N   0  0  0  0  0  0  0  0  0  0  0  0
    0.0000    0.0000    0.0000 C   0  0  0  0  0  0  0  0  0  0  0  0
    0.0000    0.0000    0.0000 C   0  0  0  0  0  0  0  0  0  0  0  0
    0.0000    0.0000    0.0000 C   0  0  0  0  0  0  0  0  0  0  0  0
    0.0000    0.0000    0.0000 C   0  0  0  0  0  0  0  0  0  0  0  0
    0.0000    0.0000    0.0000 C   0  0  0  0  0  0  0  0  0  0  0  0
    0.0000    0.0000    0.0000 N   0  0  0  0  0  0  0  0  0  0  0  0
    0.0000    0.0000    0.0000 C   0  0  0  0  0  0  0  0  0  0  0  0
    0.0000    0.0000    0.0000 N   0  0  0  0  0  0  0  0  0  0  0  0
    0.0000    0.0000    0.0000 C   0  0  0  0  0  0  0  0  0  0  0  0
    0.0000    0.0000    0.0000 C   0  0  0  0  0  0  0  0  0  0  0  0
    0.0000    0.0000    0.0000 S   0  0  0  0  0  0  0  0  0  0  0  0
    0.0000    0.0000    0.0000 C   0  0  0  0  0  0  0  0  0  0  0  0
    0.0000    0.0000    0.0000 C   0  0  0  0  0  0  0  0  0  0  0  0
    0.0000    0.0000    0.0000 C   0  0  0  0  0  0  0  0  0  0  0  0
    0.0000    0.0000    0.0000 C   0  0  0  0  0  0  0  0  0  0  0  0
    0.0000    0.0000    0.0000 N   0  0  0  0  0  0  0  0  0  0  0  0
    0.0000    0.0000    0.0000 C   0  0  0  0  0  0  0  0  0  0  0  0
    0.0000    0.0000    0.0000 C   0  0  0  0  0  0  0  0  0  0  0  0
  1  2  1  0
  2  3  1  0
  3  4  2  0
  3  5  1  0
  5  6  2  0
  6  7  1  0
  7  8  2  0
  8  9  1  0
  9 10  2  0
  8 11  1  0
 11 12  2  0
 11 13  1  0
 13 14  1  0
 14 15  2  0
 15 16  1  0
 16 17  2  0
 17 18  1  0
 18 19  1  0
 19 20  1  0
 20 21  2  0
 21 22  1  0
 22 23  2  0
 23 24  1  0
 23 25  1  0
 25 26  2  0
 26 27  1  0
 27 28  2  0
 28 29  1  0
 29 30  2  0
 18 31  2  0
 10  5  1  0
 31 14  1  0
 24 20  1  0
 30 25  1  0
M  END
>  <pIC50>  (182) 
4.77

>  <ChEMBL_ID>  (182) 
CHEMBL475051

>  <document_journal>  (182) 
J. Med. Chem.

>  <bao_endpoint>  (182) 
BAO_0000190

>  <potential_duplicate>  (182) 
False

>  <uo_units>  (182) 
UO_0000065

>  <canonical_smiles>  (182) 
ONC(=O)c1ccc(cc1)C(=O)Nc2cccc(Nc3ncc(s3)c4cccnc4)c2

>  <parent_molecule_chembl_id>  (182) 
CHEMBL475051

>  <assay_type>  (182) 
B

>  <src_id>  (182) 
1

>  <ligand_efficiency>  (182) 
{u'le': u'0.21', u'bei': u'11.05', u'sei': u'3.3', u'lle': u'1.93'}

>  <standard_flag>  (182) 
True

>  <molecule_chembl_id>  (182) 
CHEMBL475051

>  <target_organism>  (182) 
Homo sapiens

>  <standard_units>  (182) 
nM

>  <record_id>  (182) 
754239

>  <document_chembl_id>  (182) 
CHEMBL1153406

>  <bao_format>  (182) 
BAO_0000357

>  <data_validity_description>  (182) 
None

>  <activity_id>  (182) 
2280469

>  <standard_type>  (182) 
IC50

>  <target_chembl_id>  (182) 
CHEMBL1862

>  <data_validity_comment>  (182) 
None

>  <published_value>  (182) 
17

>  <document_year>  (182) 
2009

>  <target_pref_name>  (182) 
Tyrosine-protein kinase ABL

>  <assay_chembl_id>  (182) 
CHEMBL1022422

>  <standard_relation>  (182) 
=

>  <assay_description>  (182) 
Inhibition of wild-type c-Abl by liquid scintillation counting

>  <published_relation>  (182) 
=

>  <standard_value>  (182) 
17000

>  <qudt_units>  (182) 
http://www.openphacts.org/units/Nanomolar

>  <target_tax_id>  (182) 
9606

>  <bao_label>  (182) 
single protein format

>  <published_units>  (182) 
uM

>  <pchembl_value>  (182) 
4.77

>  <published_type>  (182) 
IC50

>  <activity_comment>  (182) 
None

$$$$

     RDKit          

 37 41  0  0  0  0  0  0  0  0999 V2000
    0.0000    0.0000    0.0000 N   0  0  0  0  0  0  0  0  0  0  0  0
    0.0000    0.0000    0.0000 C   0  0  0  0  0  0  0  0  0  0  0  0
    0.0000    0.0000    0.0000 C   0  0  0  0  0  0  0  0  0  0  0  0
    0.0000    0.0000    0.0000 C   0  0  0  0  0  0  0  0  0  0  0  0
    0.0000    0.0000    0.0000 C   0  0  0  0  0  0  0  0  0  0  0  0
    0.0000    0.0000    0.0000 C   0  0  0  0  0  0  0  0  0  0  0  0
    0.0000    0.0000    0.0000 C   0  0  0  0  0  0  0  0  0  0  0  0
    0.0000    0.0000    0.0000 N   0  0  0  0  0  0  0  0  0  0  0  0
    0.0000    0.0000    0.0000 C   0  0  0  0  0  0  0  0  0  0  0  0
    0.0000    0.0000    0.0000 O   0  0  0  0  0  0  0  0  0  0  0  0
    0.0000    0.0000    0.0000 C   0  0  0  0  0  0  0  0  0  0  0  0
    0.0000    0.0000    0.0000 C   0  0  0  0  0  0  0  0  0  0  0  0
    0.0000    0.0000    0.0000 C   0  0  0  0  0  0  0  0  0  0  0  0
    0.0000    0.0000    0.0000 C   0  0  0  0  0  0  0  0  0  0  0  0
    0.0000    0.0000    0.0000 C   0  0  0  0  0  0  0  0  0  0  0  0
    0.0000    0.0000    0.0000 N   0  0  0  0  0  0  0  0  0  0  0  0
    0.0000    0.0000    0.0000 C   0  0  0  0  0  0  0  0  0  0  0  0
    0.0000    0.0000    0.0000 O   0  0  0  0  0  0  0  0  0  0  0  0
    0.0000    0.0000    0.0000 N   0  0  0  0  0  0  0  0  0  0  0  0
    0.0000    0.0000    0.0000 C   0  0  0  0  0  0  0  0  0  0  0  0
    0.0000    0.0000    0.0000 C   0  0  0  0  0  0  0  0  0  0  0  0
    0.0000    0.0000    0.0000 C   0  0  0  0  0  0  0  0  0  0  0  0
    0.0000    0.0000    0.0000 C   0  0  0  0  0  0  0  0  0  0  0  0
    0.0000    0.0000    0.0000 C   0  0  0  0  0  0  0  0  0  0  0  0
    0.0000    0.0000    0.0000 N   0  0  0  0  0  0  0  0  0  0  0  0
    0.0000    0.0000    0.0000 C   0  0  0  0  0  0  0  0  0  0  0  0
    0.0000    0.0000    0.0000 N   0  0  0  0  0  0  0  0  0  0  0  0
    0.0000    0.0000    0.0000 C   0  0  0  0  0  0  0  0  0  0  0  0
    0.0000    0.0000    0.0000 C   0  0  0  0  0  0  0  0  0  0  0  0
    0.0000    0.0000    0.0000 S   0  0  0  0  0  0  0  0  0  0  0  0
    0.0000    0.0000    0.0000 C   0  0  0  0  0  0  0  0  0  0  0  0
    0.0000    0.0000    0.0000 C   0  0  0  0  0  0  0  0  0  0  0  0
    0.0000    0.0000    0.0000 C   0  0  0  0  0  0  0  0  0  0  0  0
    0.0000    0.0000    0.0000 C   0  0  0  0  0  0  0  0  0  0  0  0
    0.0000    0.0000    0.0000 N   0  0  0  0  0  0  0  0  0  0  0  0
    0.0000    0.0000    0.0000 C   0  0  0  0  0  0  0  0  0  0  0  0
    0.0000    0.0000    0.0000 C   0  0  0  0  0  0  0  0  0  0  0  0
  1  2  1  0
  2  3  2  0
  3  4  1  0
  4  5  2  0
  5  6  1  0
  6  7  2  0
  7  8  1  0
  8  9  1  0
  9 10  2  0
  9 11  1  0
 11 12  2  0
 12 13  1  0
 13 14  2  0
 14 15  1  0
 15 16  2  0
 14 17  1  0
 17 18  2  0
 17 19  1  0
 19 20  1  0
 20 21  2  0
 21 22  1  0
 22 23  2  0
 23 24  1  0
 24 25  1  0
 25 26  1  0
 26 27  2  0
 27 28  1  0
 28 29  2  0
 29 30  1  0
 29 31  1  0
 31 32  2  0
 32 33  1  0
 33 34  2  0
 34 35  1  0
 35 36  2  0
 24 37  2  0
  7  2  1  0
 16 11  1  0
 37 20  1  0
 30 26  1  0
 36 31  1  0
M  END
>  <pIC50>  (183) 
4.62

>  <ChEMBL_ID>  (183) 
CHEMBL474863

>  <document_journal>  (183) 
J. Med. Chem.

>  <bao_endpoint>  (183) 
BAO_0000190

>  <potential_duplicate>  (183) 
False

>  <uo_units>  (183) 
UO_0000065

>  <canonical_smiles>  (183) 
Nc1ccccc1NC(=O)c2ccc(cn2)C(=O)Nc3cccc(Nc4ncc(s4)c5cccnc5)c3

>  <parent_molecule_chembl_id>  (183) 
CHEMBL474863

>  <assay_type>  (183) 
B

>  <src_id>  (183) 
1

>  <ligand_efficiency>  (183) 
{u'le': u'0.17', u'bei': u'9.1', u'sei': u'2.83', u'lle': u'1.48'}

>  <standard_flag>  (183) 
True

>  <molecule_chembl_id>  (183) 
CHEMBL474863

>  <target_organism>  (183) 
Homo sapiens

>  <standard_units>  (183) 
nM

>  <record_id>  (183) 
754162

>  <document_chembl_id>  (183) 
CHEMBL1153406

>  <bao_format>  (183) 
BAO_0000357

>  <data_validity_description>  (183) 
None

>  <activity_id>  (183) 
2280473

>  <standard_type>  (183) 
IC50

>  <target_chembl_id>  (183) 
CHEMBL1862

>  <data_validity_comment>  (183) 
None

>  <published_value>  (183) 
24

>  <document_year>  (183) 
2009

>  <target_pref_name>  (183) 
Tyrosine-protein kinase ABL

>  <assay_chembl_id>  (183) 
CHEMBL1022422

>  <standard_relation>  (183) 
=

>  <assay_description>  (183) 
Inhibition of wild-type c-Abl by liquid scintillation counting

>  <published_relation>  (183) 
=

>  <standard_value>  (183) 
24000

>  <qudt_units>  (183) 
http://www.openphacts.org/units/Nanomolar

>  <target_tax_id>  (183) 
9606

>  <bao_label>  (183) 
single protein format

>  <published_units>  (183) 
uM

>  <pchembl_value>  (183) 
4.62

>  <published_type>  (183) 
IC50

>  <activity_comment>  (183) 
None

$$$$

     RDKit          

 36 40  0  0  0  0  0  0  0  0999 V2000
    0.0000    0.0000    0.0000 N   0  0  0  0  0  0  0  0  0  0  0  0
    0.0000    0.0000    0.0000 C   0  0  0  0  0  0  0  0  0  0  0  0
    0.0000    0.0000    0.0000 C   0  0  0  0  0  0  0  0  0  0  0  0
    0.0000    0.0000    0.0000 C   0  0  0  0  0  0  0  0  0  0  0  0
    0.0000    0.0000    0.0000 C   0  0  0  0  0  0  0  0  0  0  0  0
    0.0000    0.0000    0.0000 C   0  0  0  0  0  0  0  0  0  0  0  0
    0.0000    0.0000    0.0000 C   0  0  0  0  0  0  0  0  0  0  0  0
    0.0000    0.0000    0.0000 N   0  0  0  0  0  0  0  0  0  0  0  0
    0.0000    0.0000    0.0000 C   0  0  0  0  0  0  0  0  0  0  0  0
    0.0000    0.0000    0.0000 O   0  0  0  0  0  0  0  0  0  0  0  0
    0.0000    0.0000    0.0000 C   0  0  0  0  0  0  0  0  0  0  0  0
    0.0000    0.0000    0.0000 C   0  0  0  0  0  0  0  0  0  0  0  0
    0.0000    0.0000    0.0000 C   0  0  0  0  0  0  0  0  0  0  0  0
    0.0000    0.0000    0.0000 C   0  0  0  0  0  0  0  0  0  0  0  0
    0.0000    0.0000    0.0000 S   0  0  0  0  0  0  0  0  0  0  0  0
    0.0000    0.0000    0.0000 C   0  0  0  0  0  0  0  0  0  0  0  0
    0.0000    0.0000    0.0000 O   0  0  0  0  0  0  0  0  0  0  0  0
    0.0000    0.0000    0.0000 N   0  0  0  0  0  0  0  0  0  0  0  0
    0.0000    0.0000    0.0000 C   0  0  0  0  0  0  0  0  0  0  0  0
    0.0000    0.0000    0.0000 C   0  0  0  0  0  0  0  0  0  0  0  0
    0.0000    0.0000    0.0000 C   0  0  0  0  0  0  0  0  0  0  0  0
    0.0000    0.0000    0.0000 C   0  0  0  0  0  0  0  0  0  0  0  0
    0.0000    0.0000    0.0000 C   0  0  0  0  0  0  0  0  0  0  0  0
    0.0000    0.0000    0.0000 N   0  0  0  0  0  0  0  0  0  0  0  0
    0.0000    0.0000    0.0000 C   0  0  0  0  0  0  0  0  0  0  0  0
    0.0000    0.0000    0.0000 N   0  0  0  0  0  0  0  0  0  0  0  0
    0.0000    0.0000    0.0000 C   0  0  0  0  0  0  0  0  0  0  0  0
    0.0000    0.0000    0.0000 C   0  0  0  0  0  0  0  0  0  0  0  0
    0.0000    0.0000    0.0000 S   0  0  0  0  0  0  0  0  0  0  0  0
    0.0000    0.0000    0.0000 C   0  0  0  0  0  0  0  0  0  0  0  0
    0.0000    0.0000    0.0000 C   0  0  0  0  0  0  0  0  0  0  0  0
    0.0000    0.0000    0.0000 C   0  0  0  0  0  0  0  0  0  0  0  0
    0.0000    0.0000    0.0000 C   0  0  0  0  0  0  0  0  0  0  0  0
    0.0000    0.0000    0.0000 N   0  0  0  0  0  0  0  0  0  0  0  0
    0.0000    0.0000    0.0000 C   0  0  0  0  0  0  0  0  0  0  0  0
    0.0000    0.0000    0.0000 C   0  0  0  0  0  0  0  0  0  0  0  0
  1  2  1  0
  2  3  2  0
  3  4  1  0
  4  5  2  0
  5  6  1  0
  6  7  2  0
  7  8  1  0
  8  9  1  0
  9 10  2  0
  9 11  1  0
 11 12  2  0
 12 13  1  0
 13 14  2  0
 14 15  1  0
 14 16  1  0
 16 17  2  0
 16 18  1  0
 18 19  1  0
 19 20  2  0
 20 21  1  0
 21 22  2  0
 22 23  1  0
 23 24  1  0
 24 25  1  0
 25 26  2  0
 26 27  1  0
 27 28  2  0
 28 29  1  0
 28 30  1  0
 30 31  2  0
 31 32  1  0
 32 33  2  0
 33 34  1  0
 34 35  2  0
 23 36  2  0
  7  2  1  0
 15 11  1  0
 36 19  1  0
 29 25  1  0
 35 30  1  0
M  END
>  <pIC50>  (184) 
4.62

>  <ChEMBL_ID>  (184) 
CHEMBL474208

>  <document_journal>  (184) 
J. Med. Chem.

>  <bao_endpoint>  (184) 
BAO_0000190

>  <potential_duplicate>  (184) 
False

>  <uo_units>  (184) 
UO_0000065

>  <canonical_smiles>  (184) 
Nc1ccccc1NC(=O)c2ccc(s2)C(=O)Nc3cccc(Nc4ncc(s4)c5cccnc5)c3

>  <parent_molecule_chembl_id>  (184) 
CHEMBL474208

>  <assay_type>  (184) 
B

>  <src_id>  (184) 
1

>  <ligand_efficiency>  (184) 
{u'le': u'0.18', u'bei': u'9.01', u'sei': u'2.59', u'lle': u'0.52'}

>  <standard_flag>  (184) 
True

>  <molecule_chembl_id>  (184) 
CHEMBL474208

>  <target_organism>  (184) 
Homo sapiens

>  <standard_units>  (184) 
nM

>  <record_id>  (184) 
754237

>  <document_chembl_id>  (184) 
CHEMBL1153406

>  <bao_format>  (184) 
BAO_0000357

>  <data_validity_description>  (184) 
None

>  <activity_id>  (184) 
2280474

>  <standard_type>  (184) 
IC50

>  <target_chembl_id>  (184) 
CHEMBL1862

>  <data_validity_comment>  (184) 
None

>  <published_value>  (184) 
24

>  <document_year>  (184) 
2009

>  <target_pref_name>  (184) 
Tyrosine-protein kinase ABL

>  <assay_chembl_id>  (184) 
CHEMBL1022422

>  <standard_relation>  (184) 
=

>  <assay_description>  (184) 
Inhibition of wild-type c-Abl by liquid scintillation counting

>  <published_relation>  (184) 
=

>  <standard_value>  (184) 
24000

>  <qudt_units>  (184) 
http://www.openphacts.org/units/Nanomolar

>  <target_tax_id>  (184) 
9606

>  <bao_label>  (184) 
single protein format

>  <published_units>  (184) 
uM

>  <pchembl_value>  (184) 
4.62

>  <published_type>  (184) 
IC50

>  <activity_comment>  (184) 
None

$$$$

     RDKit          

 37 41  0  0  0  0  0  0  0  0999 V2000
    0.0000    0.0000    0.0000 C   0  0  0  0  0  0  0  0  0  0  0  0
    0.0000    0.0000    0.0000 C   0  0  0  0  0  0  0  0  0  0  0  0
    0.0000    0.0000    0.0000 C   0  0  0  0  0  0  0  0  0  0  0  0
    0.0000    0.0000    0.0000 C   0  0  0  0  0  0  0  0  0  0  0  0
    0.0000    0.0000    0.0000 C   0  0  0  0  0  0  0  0  0  0  0  0
    0.0000    0.0000    0.0000 N   0  0  0  0  0  0  0  0  0  0  0  0
    0.0000    0.0000    0.0000 C   0  0  0  0  0  0  0  0  0  0  0  0
    0.0000    0.0000    0.0000 O   0  0  0  0  0  0  0  0  0  0  0  0
    0.0000    0.0000    0.0000 C   0  0  0  0  0  0  0  0  0  0  0  0
    0.0000    0.0000    0.0000 C   0  0  0  0  0  0  0  0  0  0  0  0
    0.0000    0.0000    0.0000 C   0  0  0  0  0  0  0  0  0  0  0  0
    0.0000    0.0000    0.0000 C   0  0  0  0  0  0  0  0  0  0  0  0
    0.0000    0.0000    0.0000 S   0  0  0  0  0  0  0  0  0  0  0  0
    0.0000    0.0000    0.0000 C   0  0  0  0  0  0  0  0  0  0  0  0
    0.0000    0.0000    0.0000 O   0  0  0  0  0  0  0  0  0  0  0  0
    0.0000    0.0000    0.0000 N   0  0  0  0  0  0  0  0  0  0  0  0
    0.0000    0.0000    0.0000 C   0  0  0  0  0  0  0  0  0  0  0  0
    0.0000    0.0000    0.0000 C   0  0  0  0  0  0  0  0  0  0  0  0
    0.0000    0.0000    0.0000 C   0  0  0  0  0  0  0  0  0  0  0  0
    0.0000    0.0000    0.0000 C   0  0  0  0  0  0  0  0  0  0  0  0
    0.0000    0.0000    0.0000 C   0  0  0  0  0  0  0  0  0  0  0  0
    0.0000    0.0000    0.0000 C   0  0  0  0  0  0  0  0  0  0  0  0
    0.0000    0.0000    0.0000 N   0  0  0  0  0  0  0  0  0  0  0  0
    0.0000    0.0000    0.0000 C   0  0  0  0  0  0  0  0  0  0  0  0
    0.0000    0.0000    0.0000 C   0  0  0  0  0  0  0  0  0  0  0  0
    0.0000    0.0000    0.0000 N   0  0  0  0  0  0  0  0  0  0  0  0
    0.0000    0.0000    0.0000 C   0  0  0  0  0  0  0  0  0  0  0  0
    0.0000    0.0000    0.0000 N   0  0  0  0  0  0  0  0  0  0  0  0
    0.0000    0.0000    0.0000 C   0  0  0  0  0  0  0  0  0  0  0  0
    0.0000    0.0000    0.0000 C   0  0  0  0  0  0  0  0  0  0  0  0
    0.0000    0.0000    0.0000 S   0  0  0  0  0  0  0  0  0  0  0  0
    0.0000    0.0000    0.0000 C   0  0  0  0  0  0  0  0  0  0  0  0
    0.0000    0.0000    0.0000 C   0  0  0  0  0  0  0  0  0  0  0  0
    0.0000    0.0000    0.0000 C   0  0  0  0  0  0  0  0  0  0  0  0
    0.0000    0.0000    0.0000 C   0  0  0  0  0  0  0  0  0  0  0  0
    0.0000    0.0000    0.0000 N   0  0  0  0  0  0  0  0  0  0  0  0
    0.0000    0.0000    0.0000 C   0  0  0  0  0  0  0  0  0  0  0  0
  1  2  1  0
  2  3  2  0
  3  4  1  0
  4  5  2  0
  5  6  1  0
  6  7  1  0
  7  8  2  0
  7  9  1  0
  9 10  2  0
 10 11  1  0
 11 12  2  0
 12 13  1  0
 12 14  1  0
 14 15  2  0
 14 16  1  0
 16 17  1  0
 17 18  2  0
 18 19  1  0
 19 20  2  0
 20 21  1  0
 21 22  2  0
 22 23  1  0
  5 24  1  0
 24 25  2  0
 25 26  1  0
 26 27  1  0
 27 28  2  0
 28 29  1  0
 29 30  2  0
 30 31  1  0
 30 32  1  0
 32 33  2  0
 33 34  1  0
 34 35  2  0
 35 36  1  0
 36 37  2  0
 25  2  1  0
 13  9  1  0
 22 17  1  0
 31 27  1  0
 37 32  1  0
M  END
>  <pIC50>  (185) 
4.62

>  <ChEMBL_ID>  (185) 
CHEMBL515109

>  <document_journal>  (185) 
J. Med. Chem.

>  <bao_endpoint>  (185) 
BAO_0000190

>  <potential_duplicate>  (185) 
False

>  <uo_units>  (185) 
UO_0000065

>  <canonical_smiles>  (185) 
Cc1ccc(NC(=O)c2ccc(s2)C(=O)Nc3ccccc3N)cc1Nc4ncc(s4)c5cccnc5

>  <parent_molecule_chembl_id>  (185) 
CHEMBL515109

>  <assay_type>  (185) 
B

>  <src_id>  (185) 
1

>  <ligand_efficiency>  (185) 
{u'le': u'0.17', u'bei': u'8.77', u'sei': u'2.59', u'lle': u'0.03'}

>  <standard_flag>  (185) 
True

>  <molecule_chembl_id>  (185) 
CHEMBL515109

>  <target_organism>  (185) 
Homo sapiens

>  <standard_units>  (185) 
nM

>  <record_id>  (185) 
754238

>  <document_chembl_id>  (185) 
CHEMBL1153406

>  <bao_format>  (185) 
BAO_0000357

>  <data_validity_description>  (185) 
None

>  <activity_id>  (185) 
2280475

>  <standard_type>  (185) 
IC50

>  <target_chembl_id>  (185) 
CHEMBL1862

>  <data_validity_comment>  (185) 
None

>  <published_value>  (185) 
24

>  <document_year>  (185) 
2009

>  <target_pref_name>  (185) 
Tyrosine-protein kinase ABL

>  <assay_chembl_id>  (185) 
CHEMBL1022422

>  <standard_relation>  (185) 
=

>  <assay_description>  (185) 
Inhibition of wild-type c-Abl by liquid scintillation counting

>  <published_relation>  (185) 
=

>  <standard_value>  (185) 
24000

>  <qudt_units>  (185) 
http://www.openphacts.org/units/Nanomolar

>  <target_tax_id>  (185) 
9606

>  <bao_label>  (185) 
single protein format

>  <published_units>  (185) 
uM

>  <pchembl_value>  (185) 
4.62

>  <published_type>  (185) 
IC50

>  <activity_comment>  (185) 
None

$$$$

     RDKit          

 38 42  0  0  0  0  0  0  0  0999 V2000
    0.0000    0.0000    0.0000 C   0  0  0  0  0  0  0  0  0  0  0  0
    0.0000    0.0000    0.0000 C   0  0  0  0  0  0  0  0  0  0  0  0
    0.0000    0.0000    0.0000 C   0  0  0  0  0  0  0  0  0  0  0  0
    0.0000    0.0000    0.0000 C   0  0  0  0  0  0  0  0  0  0  0  0
    0.0000    0.0000    0.0000 C   0  0  0  0  0  0  0  0  0  0  0  0
    0.0000    0.0000    0.0000 N   0  0  0  0  0  0  0  0  0  0  0  0
    0.0000    0.0000    0.0000 C   0  0  0  0  0  0  0  0  0  0  0  0
    0.0000    0.0000    0.0000 O   0  0  0  0  0  0  0  0  0  0  0  0
    0.0000    0.0000    0.0000 C   0  0  0  0  0  0  0  0  0  0  0  0
    0.0000    0.0000    0.0000 C   0  0  0  0  0  0  0  0  0  0  0  0
    0.0000    0.0000    0.0000 C   0  0  0  0  0  0  0  0  0  0  0  0
    0.0000    0.0000    0.0000 C   0  0  0  0  0  0  0  0  0  0  0  0
    0.0000    0.0000    0.0000 S   0  0  0  0  0  0  0  0  0  0  0  0
    0.0000    0.0000    0.0000 C   0  0  0  0  0  0  0  0  0  0  0  0
    0.0000    0.0000    0.0000 O   0  0  0  0  0  0  0  0  0  0  0  0
    0.0000    0.0000    0.0000 N   0  0  0  0  0  0  0  0  0  0  0  0
    0.0000    0.0000    0.0000 C   0  0  0  0  0  0  0  0  0  0  0  0
    0.0000    0.0000    0.0000 C   0  0  0  0  0  0  0  0  0  0  0  0
    0.0000    0.0000    0.0000 C   0  0  0  0  0  0  0  0  0  0  0  0
    0.0000    0.0000    0.0000 C   0  0  0  0  0  0  0  0  0  0  0  0
    0.0000    0.0000    0.0000 C   0  0  0  0  0  0  0  0  0  0  0  0
    0.0000    0.0000    0.0000 C   0  0  0  0  0  0  0  0  0  0  0  0
    0.0000    0.0000    0.0000 N   0  0  0  0  0  0  0  0  0  0  0  0
    0.0000    0.0000    0.0000 C   0  0  0  0  0  0  0  0  0  0  0  0
    0.0000    0.0000    0.0000 C   0  0  0  0  0  0  0  0  0  0  0  0
    0.0000    0.0000    0.0000 N   0  0  0  0  0  0  0  0  0  0  0  0
    0.0000    0.0000    0.0000 C   0  0  0  0  0  0  0  0  0  0  0  0
    0.0000    0.0000    0.0000 N   0  0  0  0  0  0  0  0  0  0  0  0
    0.0000    0.0000    0.0000 C   0  0  0  0  0  0  0  0  0  0  0  0
    0.0000    0.0000    0.0000 C   0  0  0  0  0  0  0  0  0  0  0  0
    0.0000    0.0000    0.0000 C   0  0  0  0  0  0  0  0  0  0  0  0
    0.0000    0.0000    0.0000 N   0  0  0  0  0  0  0  0  0  0  0  0
    0.0000    0.0000    0.0000 C   0  0  0  0  0  0  0  0  0  0  0  0
    0.0000    0.0000    0.0000 C   0  0  0  0  0  0  0  0  0  0  0  0
    0.0000    0.0000    0.0000 C   0  0  0  0  0  0  0  0  0  0  0  0
    0.0000    0.0000    0.0000 C   0  0  0  0  0  0  0  0  0  0  0  0
    0.0000    0.0000    0.0000 N   0  0  0  0  0  0  0  0  0  0  0  0
    0.0000    0.0000    0.0000 C   0  0  0  0  0  0  0  0  0  0  0  0
  1  2  1  0
  2  3  2  0
  3  4  1  0
  4  5  2  0
  5  6  1  0
  6  7  1  0
  7  8  2  0
  7  9  1  0
  9 10  2  0
 10 11  1  0
 11 12  2  0
 12 13  1  0
 12 14  1  0
 14 15  2  0
 14 16  1  0
 16 17  1  0
 17 18  2  0
 18 19  1  0
 19 20  2  0
 20 21  1  0
 21 22  2  0
 22 23  1  0
  5 24  1  0
 24 25  2  0
 25 26  1  0
 26 27  1  0
 27 28  2  0
 28 29  1  0
 29 30  2  0
 30 31  1  0
 31 32  2  0
 30 33  1  0
 33 34  2  0
 34 35  1  0
 35 36  2  0
 36 37  1  0
 37 38  2  0
 25  2  1  0
 13  9  1  0
 22 17  1  0
 32 27  1  0
 38 33  1  0
M  END
>  <pIC50>  (186) 
4.6

>  <ChEMBL_ID>  (186) 
CHEMBL473825

>  <document_journal>  (186) 
J. Med. Chem.

>  <bao_endpoint>  (186) 
BAO_0000190

>  <potential_duplicate>  (186) 
False

>  <uo_units>  (186) 
UO_0000065

>  <canonical_smiles>  (186) 
Cc1ccc(NC(=O)c2ccc(s2)C(=O)Nc3ccccc3N)cc1Nc4ncc(cn4)c5cccnc5

>  <parent_molecule_chembl_id>  (186) 
CHEMBL473825

>  <assay_type>  (186) 
B

>  <src_id>  (186) 
1

>  <ligand_efficiency>  (186) 
{u'le': u'0.17', u'bei': u'8.82', u'sei': u'2.82', u'lle': u'0.56'}

>  <standard_flag>  (186) 
True

>  <molecule_chembl_id>  (186) 
CHEMBL473825

>  <target_organism>  (186) 
Homo sapiens

>  <standard_units>  (186) 
nM

>  <record_id>  (186) 
754069

>  <document_chembl_id>  (186) 
CHEMBL1153406

>  <bao_format>  (186) 
BAO_0000357

>  <data_validity_description>  (186) 
None

>  <activity_id>  (186) 
2280476

>  <standard_type>  (186) 
IC50

>  <target_chembl_id>  (186) 
CHEMBL1862

>  <data_validity_comment>  (186) 
None

>  <published_value>  (186) 
25

>  <document_year>  (186) 
2009

>  <target_pref_name>  (186) 
Tyrosine-protein kinase ABL

>  <assay_chembl_id>  (186) 
CHEMBL1022422

>  <standard_relation>  (186) 
=

>  <assay_description>  (186) 
Inhibition of wild-type c-Abl by liquid scintillation counting

>  <published_relation>  (186) 
=

>  <standard_value>  (186) 
25000

>  <qudt_units>  (186) 
http://www.openphacts.org/units/Nanomolar

>  <target_tax_id>  (186) 
9606

>  <bao_label>  (186) 
single protein format

>  <published_units>  (186) 
uM

>  <pchembl_value>  (186) 
4.6

>  <published_type>  (186) 
IC50

>  <activity_comment>  (186) 
None

$$$$

     RDKit          

 39 43  0  0  0  0  0  0  0  0999 V2000
    0.0000    0.0000    0.0000 C   0  0  0  0  0  0  0  0  0  0  0  0
    0.0000    0.0000    0.0000 N   0  0  0  0  0  0  0  0  0  0  0  0
    0.0000    0.0000    0.0000 C   0  0  0  0  0  0  0  0  0  0  0  0
    0.0000    0.0000    0.0000 O   0  0  0  0  0  0  0  0  0  0  0  0
    0.0000    0.0000    0.0000 C   0  0  0  0  0  0  0  0  0  0  0  0
    0.0000    0.0000    0.0000 C   0  0  0  0  0  0  0  0  0  0  0  0
    0.0000    0.0000    0.0000 C   0  0  0  0  0  0  0  0  0  0  0  0
    0.0000    0.0000    0.0000 C   0  0  0  0  0  0  0  0  0  0  0  0
    0.0000    0.0000    0.0000 C   0  0  0  0  0  0  0  0  0  0  0  0
    0.0000    0.0000    0.0000 C   0  0  0  0  0  0  0  0  0  0  0  0
    0.0000    0.0000    0.0000 C   0  0  0  0  0  0  0  0  0  0  0  0
    0.0000    0.0000    0.0000 O   0  0  0  0  0  0  0  0  0  0  0  0
    0.0000    0.0000    0.0000 N   0  0  0  0  0  0  0  0  0  0  0  0
    0.0000    0.0000    0.0000 C   0  0  0  0  0  0  0  0  0  0  0  0
    0.0000    0.0000    0.0000 C   0  0  0  0  0  0  0  0  0  0  0  0
    0.0000    0.0000    0.0000 C   0  0  0  0  0  0  0  0  0  0  0  0
    0.0000    0.0000    0.0000 C   0  0  0  0  0  0  0  0  0  0  0  0
    0.0000    0.0000    0.0000 C   0  0  0  0  0  0  0  0  0  0  0  0
    0.0000    0.0000    0.0000 C   0  0  0  0  0  0  0  0  0  0  0  0
    0.0000    0.0000    0.0000 N   0  0  0  0  0  0  0  0  0  0  0  0
    0.0000    0.0000    0.0000 C   0  0  0  0  0  0  0  0  0  0  0  0
    0.0000    0.0000    0.0000 C   0  0  0  0  0  0  0  0  0  0  0  0
    0.0000    0.0000    0.0000 C   0  0  0  0  0  0  0  0  0  0  0  0
    0.0000    0.0000    0.0000 C   0  0  0  0  0  0  0  0  0  0  0  0
    0.0000    0.0000    0.0000 C   0  0  0  0  0  0  0  0  0  0  0  0
    0.0000    0.0000    0.0000 N   0  0  0  0  0  0  0  0  0  0  0  0
    0.0000    0.0000    0.0000 C   0  0  0  0  0  0  0  0  0  0  0  0
    0.0000    0.0000    0.0000 N   0  0  0  0  0  0  0  0  0  0  0  0
    0.0000    0.0000    0.0000 C   0  0  0  0  0  0  0  0  0  0  0  0
    0.0000    0.0000    0.0000 C   0  0  0  0  0  0  0  0  0  0  0  0
    0.0000    0.0000    0.0000 C   0  0  0  0  0  0  0  0  0  0  0  0
    0.0000    0.0000    0.0000 N   0  0  0  0  0  0  0  0  0  0  0  0
    0.0000    0.0000    0.0000 C   0  0  0  0  0  0  0  0  0  0  0  0
    0.0000    0.0000    0.0000 C   0  0  0  0  0  0  0  0  0  0  0  0
    0.0000    0.0000    0.0000 C   0  0  0  0  0  0  0  0  0  0  0  0
    0.0000    0.0000    0.0000 C   0  0  0  0  0  0  0  0  0  0  0  0
    0.0000    0.0000    0.0000 N   0  0  0  0  0  0  0  0  0  0  0  0
    0.0000    0.0000    0.0000 C   0  0  0  0  0  0  0  0  0  0  0  0
    0.0000    0.0000    0.0000 C   0  0  0  0  0  0  0  0  0  0  0  0
  1  2  1  0
  2  3  1  0
  3  4  2  0
  3  5  1  0
  5  6  2  0
  6  7  1  0
  7  8  2  0
  8  9  1  0
  9 10  2  0
  8 11  1  0
 11 12  2  0
 11 13  1  0
 13 14  1  0
 14 15  2  0
 15 16  1  0
 16 17  2  0
 17 18  1  0
 18 19  2  0
 19 20  1  0
  2 21  1  0
 21 22  2  0
 22 23  1  0
 23 24  2  0
 24 25  1  0
 25 26  1  0
 26 27  1  0
 27 28  2  0
 28 29  1  0
 29 30  2  0
 30 31  1  0
 31 32  2  0
 31 33  1  0
 33 34  2  0
 34 35  1  0
 35 36  2  0
 36 37  1  0
 37 38  2  0
 25 39  2  0
 10  5  1  0
 19 14  1  0
 39 21  1  0
 32 27  1  0
 38 33  1  0
M  END
>  <pIC50>  (187) 
4.51

>  <ChEMBL_ID>  (187) 
CHEMBL514511

>  <document_journal>  (187) 
J. Med. Chem.

>  <bao_endpoint>  (187) 
BAO_0000190

>  <potential_duplicate>  (187) 
False

>  <uo_units>  (187) 
UO_0000065

>  <canonical_smiles>  (187) 
CN(C(=O)c1ccc(cc1)C(=O)Nc2ccccc2N)c3cccc(Nc4nccc(n4)c5cccnc5)c3

>  <parent_molecule_chembl_id>  (187) 
CHEMBL514511

>  <assay_type>  (187) 
B

>  <src_id>  (187) 
1

>  <ligand_efficiency>  (187) 
{u'le': u'0.16', u'bei': u'8.74', u'sei': u'3.57', u'lle': u'0.56'}

>  <standard_flag>  (187) 
True

>  <molecule_chembl_id>  (187) 
CHEMBL514511

>  <target_organism>  (187) 
Homo sapiens

>  <standard_units>  (187) 
nM

>  <record_id>  (187) 
753899

>  <document_chembl_id>  (187) 
CHEMBL1153406

>  <bao_format>  (187) 
BAO_0000357

>  <data_validity_description>  (187) 
None

>  <activity_id>  (187) 
2280477

>  <standard_type>  (187) 
IC50

>  <target_chembl_id>  (187) 
CHEMBL1862

>  <data_validity_comment>  (187) 
None

>  <published_value>  (187) 
31

>  <document_year>  (187) 
2009

>  <target_pref_name>  (187) 
Tyrosine-protein kinase ABL

>  <assay_chembl_id>  (187) 
CHEMBL1022422

>  <standard_relation>  (187) 
=

>  <assay_description>  (187) 
Inhibition of wild-type c-Abl by liquid scintillation counting

>  <published_relation>  (187) 
=

>  <standard_value>  (187) 
31000

>  <qudt_units>  (187) 
http://www.openphacts.org/units/Nanomolar

>  <target_tax_id>  (187) 
9606

>  <bao_label>  (187) 
single protein format

>  <published_units>  (187) 
uM

>  <pchembl_value>  (187) 
4.51

>  <published_type>  (187) 
IC50

>  <activity_comment>  (187) 
None

$$$$

     RDKit          

 39 43  0  0  0  0  0  0  0  0999 V2000
    0.0000    0.0000    0.0000 C   0  0  0  0  0  0  0  0  0  0  0  0
    0.0000    0.0000    0.0000 C   0  0  0  0  0  0  0  0  0  0  0  0
    0.0000    0.0000    0.0000 C   0  0  0  0  0  0  0  0  0  0  0  0
    0.0000    0.0000    0.0000 C   0  0  0  0  0  0  0  0  0  0  0  0
    0.0000    0.0000    0.0000 C   0  0  0  0  0  0  0  0  0  0  0  0
    0.0000    0.0000    0.0000 N   0  0  0  0  0  0  0  0  0  0  0  0
    0.0000    0.0000    0.0000 C   0  0  0  0  0  0  0  0  0  0  0  0
    0.0000    0.0000    0.0000 O   0  0  0  0  0  0  0  0  0  0  0  0
    0.0000    0.0000    0.0000 C   0  0  0  0  0  0  0  0  0  0  0  0
    0.0000    0.0000    0.0000 C   0  0  0  0  0  0  0  0  0  0  0  0
    0.0000    0.0000    0.0000 C   0  0  0  0  0  0  0  0  0  0  0  0
    0.0000    0.0000    0.0000 C   0  0  0  0  0  0  0  0  0  0  0  0
    0.0000    0.0000    0.0000 N   0  0  0  0  0  0  0  0  0  0  0  0
    0.0000    0.0000    0.0000 C   0  0  0  0  0  0  0  0  0  0  0  0
    0.0000    0.0000    0.0000 C   0  0  0  0  0  0  0  0  0  0  0  0
    0.0000    0.0000    0.0000 O   0  0  0  0  0  0  0  0  0  0  0  0
    0.0000    0.0000    0.0000 N   0  0  0  0  0  0  0  0  0  0  0  0
    0.0000    0.0000    0.0000 C   0  0  0  0  0  0  0  0  0  0  0  0
    0.0000    0.0000    0.0000 C   0  0  0  0  0  0  0  0  0  0  0  0
    0.0000    0.0000    0.0000 C   0  0  0  0  0  0  0  0  0  0  0  0
    0.0000    0.0000    0.0000 C   0  0  0  0  0  0  0  0  0  0  0  0
    0.0000    0.0000    0.0000 C   0  0  0  0  0  0  0  0  0  0  0  0
    0.0000    0.0000    0.0000 C   0  0  0  0  0  0  0  0  0  0  0  0
    0.0000    0.0000    0.0000 N   0  0  0  0  0  0  0  0  0  0  0  0
    0.0000    0.0000    0.0000 C   0  0  0  0  0  0  0  0  0  0  0  0
    0.0000    0.0000    0.0000 C   0  0  0  0  0  0  0  0  0  0  0  0
    0.0000    0.0000    0.0000 N   0  0  0  0  0  0  0  0  0  0  0  0
    0.0000    0.0000    0.0000 C   0  0  0  0  0  0  0  0  0  0  0  0
    0.0000    0.0000    0.0000 N   0  0  0  0  0  0  0  0  0  0  0  0
    0.0000    0.0000    0.0000 C   0  0  0  0  0  0  0  0  0  0  0  0
    0.0000    0.0000    0.0000 C   0  0  0  0  0  0  0  0  0  0  0  0
    0.0000    0.0000    0.0000 C   0  0  0  0  0  0  0  0  0  0  0  0
    0.0000    0.0000    0.0000 N   0  0  0  0  0  0  0  0  0  0  0  0
    0.0000    0.0000    0.0000 C   0  0  0  0  0  0  0  0  0  0  0  0
    0.0000    0.0000    0.0000 C   0  0  0  0  0  0  0  0  0  0  0  0
    0.0000    0.0000    0.0000 C   0  0  0  0  0  0  0  0  0  0  0  0
    0.0000    0.0000    0.0000 C   0  0  0  0  0  0  0  0  0  0  0  0
    0.0000    0.0000    0.0000 N   0  0  0  0  0  0  0  0  0  0  0  0
    0.0000    0.0000    0.0000 C   0  0  0  0  0  0  0  0  0  0  0  0
  1  2  1  0
  2  3  2  0
  3  4  1  0
  4  5  2  0
  5  6  1  0
  6  7  1  0
  7  8  2  0
  7  9  1  0
  9 10  2  0
 10 11  1  0
 11 12  2  0
 12 13  1  0
 13 14  2  0
 12 15  1  0
 15 16  2  0
 15 17  1  0
 17 18  1  0
 18 19  2  0
 19 20  1  0
 20 21  2  0
 21 22  1  0
 22 23  2  0
 23 24  1  0
  5 25  1  0
 25 26  2  0
 26 27  1  0
 27 28  1  0
 28 29  2  0
 29 30  1  0
 30 31  2  0
 31 32  1  0
 32 33  2  0
 31 34  1  0
 34 35  2  0
 35 36  1  0
 36 37  2  0
 37 38  1  0
 38 39  2  0
 26  2  1  0
 14  9  1  0
 23 18  1  0
 33 28  1  0
 39 34  1  0
M  END
>  <pIC50>  (188) 
4.5

>  <ChEMBL_ID>  (188) 
CHEMBL515258

>  <document_journal>  (188) 
J. Med. Chem.

>  <bao_endpoint>  (188) 
BAO_0000190

>  <potential_duplicate>  (188) 
False

>  <uo_units>  (188) 
UO_0000065

>  <canonical_smiles>  (188) 
Cc1ccc(NC(=O)c2ccc(nc2)C(=O)Nc3ccccc3N)cc1Nc4ncc(cn4)c5cccnc5

>  <parent_molecule_chembl_id>  (188) 
CHEMBL515258

>  <assay_type>  (188) 
B

>  <src_id>  (188) 
1

>  <ligand_efficiency>  (188) 
{u'le': u'0.16', u'bei': u'8.7', u'sei': u'3.04', u'lle': u'1.41'}

>  <standard_flag>  (188) 
True

>  <molecule_chembl_id>  (188) 
CHEMBL515258

>  <target_organism>  (188) 
Homo sapiens

>  <standard_units>  (188) 
nM

>  <record_id>  (188) 
754068

>  <document_chembl_id>  (188) 
CHEMBL1153406

>  <bao_format>  (188) 
BAO_0000357

>  <data_validity_description>  (188) 
None

>  <activity_id>  (188) 
2280478

>  <standard_type>  (188) 
IC50

>  <target_chembl_id>  (188) 
CHEMBL1862

>  <data_validity_comment>  (188) 
None

>  <published_value>  (188) 
32

>  <document_year>  (188) 
2009

>  <target_pref_name>  (188) 
Tyrosine-protein kinase ABL

>  <assay_chembl_id>  (188) 
CHEMBL1022422

>  <standard_relation>  (188) 
=

>  <assay_description>  (188) 
Inhibition of wild-type c-Abl by liquid scintillation counting

>  <published_relation>  (188) 
=

>  <standard_value>  (188) 
32000

>  <qudt_units>  (188) 
http://www.openphacts.org/units/Nanomolar

>  <target_tax_id>  (188) 
9606

>  <bao_label>  (188) 
single protein format

>  <published_units>  (188) 
uM

>  <pchembl_value>  (188) 
4.5

>  <published_type>  (188) 
IC50

>  <activity_comment>  (188) 
None

$$$$

     RDKit          

 38 42  0  0  0  0  0  0  0  0999 V2000
    0.0000    0.0000    0.0000 C   0  0  0  0  0  0  0  0  0  0  0  0
    0.0000    0.0000    0.0000 C   0  0  0  0  0  0  0  0  0  0  0  0
    0.0000    0.0000    0.0000 C   0  0  0  0  0  0  0  0  0  0  0  0
    0.0000    0.0000    0.0000 C   0  0  0  0  0  0  0  0  0  0  0  0
    0.0000    0.0000    0.0000 C   0  0  0  0  0  0  0  0  0  0  0  0
    0.0000    0.0000    0.0000 N   0  0  0  0  0  0  0  0  0  0  0  0
    0.0000    0.0000    0.0000 C   0  0  0  0  0  0  0  0  0  0  0  0
    0.0000    0.0000    0.0000 O   0  0  0  0  0  0  0  0  0  0  0  0
    0.0000    0.0000    0.0000 C   0  0  0  0  0  0  0  0  0  0  0  0
    0.0000    0.0000    0.0000 C   0  0  0  0  0  0  0  0  0  0  0  0
    0.0000    0.0000    0.0000 C   0  0  0  0  0  0  0  0  0  0  0  0
    0.0000    0.0000    0.0000 C   0  0  0  0  0  0  0  0  0  0  0  0
    0.0000    0.0000    0.0000 C   0  0  0  0  0  0  0  0  0  0  0  0
    0.0000    0.0000    0.0000 C   0  0  0  0  0  0  0  0  0  0  0  0
    0.0000    0.0000    0.0000 C   0  0  0  0  0  0  0  0  0  0  0  0
    0.0000    0.0000    0.0000 O   0  0  0  0  0  0  0  0  0  0  0  0
    0.0000    0.0000    0.0000 N   0  0  0  0  0  0  0  0  0  0  0  0
    0.0000    0.0000    0.0000 C   0  0  0  0  0  0  0  0  0  0  0  0
    0.0000    0.0000    0.0000 C   0  0  0  0  0  0  0  0  0  0  0  0
    0.0000    0.0000    0.0000 C   0  0  0  0  0  0  0  0  0  0  0  0
    0.0000    0.0000    0.0000 C   0  0  0  0  0  0  0  0  0  0  0  0
    0.0000    0.0000    0.0000 C   0  0  0  0  0  0  0  0  0  0  0  0
    0.0000    0.0000    0.0000 C   0  0  0  0  0  0  0  0  0  0  0  0
    0.0000    0.0000    0.0000 N   0  0  0  0  0  0  0  0  0  0  0  0
    0.0000    0.0000    0.0000 C   0  0  0  0  0  0  0  0  0  0  0  0
    0.0000    0.0000    0.0000 C   0  0  0  0  0  0  0  0  0  0  0  0
    0.0000    0.0000    0.0000 N   0  0  0  0  0  0  0  0  0  0  0  0
    0.0000    0.0000    0.0000 C   0  0  0  0  0  0  0  0  0  0  0  0
    0.0000    0.0000    0.0000 N   0  0  0  0  0  0  0  0  0  0  0  0
    0.0000    0.0000    0.0000 C   0  0  0  0  0  0  0  0  0  0  0  0
    0.0000    0.0000    0.0000 C   0  0  0  0  0  0  0  0  0  0  0  0
    0.0000    0.0000    0.0000 S   0  0  0  0  0  0  0  0  0  0  0  0
    0.0000    0.0000    0.0000 C   0  0  0  0  0  0  0  0  0  0  0  0
    0.0000    0.0000    0.0000 C   0  0  0  0  0  0  0  0  0  0  0  0
    0.0000    0.0000    0.0000 C   0  0  0  0  0  0  0  0  0  0  0  0
    0.0000    0.0000    0.0000 C   0  0  0  0  0  0  0  0  0  0  0  0
    0.0000    0.0000    0.0000 N   0  0  0  0  0  0  0  0  0  0  0  0
    0.0000    0.0000    0.0000 C   0  0  0  0  0  0  0  0  0  0  0  0
  1  2  1  0
  2  3  2  0
  3  4  1  0
  4  5  2  0
  5  6  1  0
  6  7  1  0
  7  8  2  0
  7  9  1  0
  9 10  2  0
 10 11  1  0
 11 12  2  0
 12 13  1  0
 13 14  2  0
 12 15  1  0
 15 16  2  0
 15 17  1  0
 17 18  1  0
 18 19  2  0
 19 20  1  0
 20 21  2  0
 21 22  1  0
 22 23  2  0
 23 24  1  0
  5 25  1  0
 25 26  2  0
 26 27  1  0
 27 28  1  0
 28 29  2  0
 29 30  1  0
 30 31  2  0
 31 32  1  0
 31 33  1  0
 33 34  2  0
 34 35  1  0
 35 36  2  0
 36 37  1  0
 37 38  2  0
 26  2  1  0
 14  9  1  0
 23 18  1  0
 32 28  1  0
 38 33  1  0
M  END
>  <pIC50>  (189) 
4.47

>  <ChEMBL_ID>  (189) 
CHEMBL515432

>  <document_journal>  (189) 
J. Med. Chem.

>  <bao_endpoint>  (189) 
BAO_0000190

>  <potential_duplicate>  (189) 
False

>  <uo_units>  (189) 
UO_0000065

>  <canonical_smiles>  (189) 
Cc1ccc(NC(=O)c2ccc(cc2)C(=O)Nc3ccccc3N)cc1Nc4ncc(s4)c5cccnc5

>  <parent_molecule_chembl_id>  (189) 
CHEMBL515432

>  <assay_type>  (189) 
B

>  <src_id>  (189) 
1

>  <ligand_efficiency>  (189) 
{u'le': u'0.16', u'bei': u'8.58', u'sei': u'2.97', u'lle': u'0.12'}

>  <standard_flag>  (189) 
True

>  <molecule_chembl_id>  (189) 
CHEMBL515432

>  <target_organism>  (189) 
Homo sapiens

>  <standard_units>  (189) 
nM

>  <record_id>  (189) 
754161

>  <document_chembl_id>  (189) 
CHEMBL1153406

>  <bao_format>  (189) 
BAO_0000357

>  <data_validity_description>  (189) 
None

>  <activity_id>  (189) 
2280480

>  <standard_type>  (189) 
IC50

>  <target_chembl_id>  (189) 
CHEMBL1862

>  <data_validity_comment>  (189) 
None

>  <published_value>  (189) 
34

>  <document_year>  (189) 
2009

>  <target_pref_name>  (189) 
Tyrosine-protein kinase ABL

>  <assay_chembl_id>  (189) 
CHEMBL1022422

>  <standard_relation>  (189) 
=

>  <assay_description>  (189) 
Inhibition of wild-type c-Abl by liquid scintillation counting

>  <published_relation>  (189) 
=

>  <standard_value>  (189) 
34000

>  <qudt_units>  (189) 
http://www.openphacts.org/units/Nanomolar

>  <target_tax_id>  (189) 
9606

>  <bao_label>  (189) 
single protein format

>  <published_units>  (189) 
uM

>  <pchembl_value>  (189) 
4.47

>  <published_type>  (189) 
IC50

>  <activity_comment>  (189) 
None

$$$$

     RDKit          

 38 42  0  0  0  0  0  0  0  0999 V2000
    0.0000    0.0000    0.0000 C   0  0  0  0  0  0  0  0  0  0  0  0
    0.0000    0.0000    0.0000 C   0  0  0  0  0  0  0  0  0  0  0  0
    0.0000    0.0000    0.0000 C   0  0  0  0  0  0  0  0  0  0  0  0
    0.0000    0.0000    0.0000 C   0  0  0  0  0  0  0  0  0  0  0  0
    0.0000    0.0000    0.0000 C   0  0  0  0  0  0  0  0  0  0  0  0
    0.0000    0.0000    0.0000 N   0  0  0  0  0  0  0  0  0  0  0  0
    0.0000    0.0000    0.0000 C   0  0  0  0  0  0  0  0  0  0  0  0
    0.0000    0.0000    0.0000 O   0  0  0  0  0  0  0  0  0  0  0  0
    0.0000    0.0000    0.0000 C   0  0  0  0  0  0  0  0  0  0  0  0
    0.0000    0.0000    0.0000 C   0  0  0  0  0  0  0  0  0  0  0  0
    0.0000    0.0000    0.0000 C   0  0  0  0  0  0  0  0  0  0  0  0
    0.0000    0.0000    0.0000 C   0  0  0  0  0  0  0  0  0  0  0  0
    0.0000    0.0000    0.0000 N   0  0  0  0  0  0  0  0  0  0  0  0
    0.0000    0.0000    0.0000 C   0  0  0  0  0  0  0  0  0  0  0  0
    0.0000    0.0000    0.0000 C   0  0  0  0  0  0  0  0  0  0  0  0
    0.0000    0.0000    0.0000 O   0  0  0  0  0  0  0  0  0  0  0  0
    0.0000    0.0000    0.0000 N   0  0  0  0  0  0  0  0  0  0  0  0
    0.0000    0.0000    0.0000 C   0  0  0  0  0  0  0  0  0  0  0  0
    0.0000    0.0000    0.0000 C   0  0  0  0  0  0  0  0  0  0  0  0
    0.0000    0.0000    0.0000 C   0  0  0  0  0  0  0  0  0  0  0  0
    0.0000    0.0000    0.0000 C   0  0  0  0  0  0  0  0  0  0  0  0
    0.0000    0.0000    0.0000 C   0  0  0  0  0  0  0  0  0  0  0  0
    0.0000    0.0000    0.0000 C   0  0  0  0  0  0  0  0  0  0  0  0
    0.0000    0.0000    0.0000 N   0  0  0  0  0  0  0  0  0  0  0  0
    0.0000    0.0000    0.0000 C   0  0  0  0  0  0  0  0  0  0  0  0
    0.0000    0.0000    0.0000 C   0  0  0  0  0  0  0  0  0  0  0  0
    0.0000    0.0000    0.0000 N   0  0  0  0  0  0  0  0  0  0  0  0
    0.0000    0.0000    0.0000 C   0  0  0  0  0  0  0  0  0  0  0  0
    0.0000    0.0000    0.0000 N   0  0  0  0  0  0  0  0  0  0  0  0
    0.0000    0.0000    0.0000 C   0  0  0  0  0  0  0  0  0  0  0  0
    0.0000    0.0000    0.0000 C   0  0  0  0  0  0  0  0  0  0  0  0
    0.0000    0.0000    0.0000 S   0  0  0  0  0  0  0  0  0  0  0  0
    0.0000    0.0000    0.0000 C   0  0  0  0  0  0  0  0  0  0  0  0
    0.0000    0.0000    0.0000 C   0  0  0  0  0  0  0  0  0  0  0  0
    0.0000    0.0000    0.0000 C   0  0  0  0  0  0  0  0  0  0  0  0
    0.0000    0.0000    0.0000 C   0  0  0  0  0  0  0  0  0  0  0  0
    0.0000    0.0000    0.0000 N   0  0  0  0  0  0  0  0  0  0  0  0
    0.0000    0.0000    0.0000 C   0  0  0  0  0  0  0  0  0  0  0  0
  1  2  1  0
  2  3  2  0
  3  4  1  0
  4  5  2  0
  5  6  1  0
  6  7  1  0
  7  8  2  0
  7  9  1  0
  9 10  2  0
 10 11  1  0
 11 12  2  0
 12 13  1  0
 13 14  2  0
 12 15  1  0
 15 16  2  0
 15 17  1  0
 17 18  1  0
 18 19  2  0
 19 20  1  0
 20 21  2  0
 21 22  1  0
 22 23  2  0
 23 24  1  0
  5 25  1  0
 25 26  2  0
 26 27  1  0
 27 28  1  0
 28 29  2  0
 29 30  1  0
 30 31  2  0
 31 32  1  0
 31 33  1  0
 33 34  2  0
 34 35  1  0
 35 36  2  0
 36 37  1  0
 37 38  2  0
 26  2  1  0
 14  9  1  0
 23 18  1  0
 32 28  1  0
 38 33  1  0
M  END
>  <pIC50>  (190) 
4.46

>  <ChEMBL_ID>  (190) 
CHEMBL474046

>  <document_journal>  (190) 
J. Med. Chem.

>  <bao_endpoint>  (190) 
BAO_0000190

>  <potential_duplicate>  (190) 
False

>  <uo_units>  (190) 
UO_0000065

>  <canonical_smiles>  (190) 
Cc1ccc(NC(=O)c2ccc(nc2)C(=O)Nc3ccccc3N)cc1Nc4ncc(s4)c5cccnc5

>  <parent_molecule_chembl_id>  (190) 
CHEMBL474046

>  <assay_type>  (190) 
B

>  <src_id>  (190) 
1

>  <ligand_efficiency>  (190) 
{u'le': u'0.16', u'bei': u'8.54', u'sei': u'2.73', u'lle': u'0.84'}

>  <standard_flag>  (190) 
True

>  <molecule_chembl_id>  (190) 
CHEMBL474046

>  <target_organism>  (190) 
Homo sapiens

>  <standard_units>  (190) 
nM

>  <record_id>  (190) 
754236

>  <document_chembl_id>  (190) 
CHEMBL1153406

>  <bao_format>  (190) 
BAO_0000357

>  <data_validity_description>  (190) 
None

>  <activity_id>  (190) 
2280481

>  <standard_type>  (190) 
IC50

>  <target_chembl_id>  (190) 
CHEMBL1862

>  <data_validity_comment>  (190) 
None

>  <published_value>  (190) 
35

>  <document_year>  (190) 
2009

>  <target_pref_name>  (190) 
Tyrosine-protein kinase ABL

>  <assay_chembl_id>  (190) 
CHEMBL1022422

>  <standard_relation>  (190) 
=

>  <assay_description>  (190) 
Inhibition of wild-type c-Abl by liquid scintillation counting

>  <published_relation>  (190) 
=

>  <standard_value>  (190) 
35000

>  <qudt_units>  (190) 
http://www.openphacts.org/units/Nanomolar

>  <target_tax_id>  (190) 
9606

>  <bao_label>  (190) 
single protein format

>  <published_units>  (190) 
uM

>  <pchembl_value>  (190) 
4.46

>  <published_type>  (190) 
IC50

>  <activity_comment>  (190) 
None

$$$$

     RDKit          

 37 41  0  0  0  0  0  0  0  0999 V2000
    0.0000    0.0000    0.0000 N   0  0  0  0  0  0  0  0  0  0  0  0
    0.0000    0.0000    0.0000 C   0  0  0  0  0  0  0  0  0  0  0  0
    0.0000    0.0000    0.0000 C   0  0  0  0  0  0  0  0  0  0  0  0
    0.0000    0.0000    0.0000 C   0  0  0  0  0  0  0  0  0  0  0  0
    0.0000    0.0000    0.0000 C   0  0  0  0  0  0  0  0  0  0  0  0
    0.0000    0.0000    0.0000 C   0  0  0  0  0  0  0  0  0  0  0  0
    0.0000    0.0000    0.0000 C   0  0  0  0  0  0  0  0  0  0  0  0
    0.0000    0.0000    0.0000 N   0  0  0  0  0  0  0  0  0  0  0  0
    0.0000    0.0000    0.0000 C   0  0  0  0  0  0  0  0  0  0  0  0
    0.0000    0.0000    0.0000 O   0  0  0  0  0  0  0  0  0  0  0  0
    0.0000    0.0000    0.0000 C   0  0  0  0  0  0  0  0  0  0  0  0
    0.0000    0.0000    0.0000 C   0  0  0  0  0  0  0  0  0  0  0  0
    0.0000    0.0000    0.0000 C   0  0  0  0  0  0  0  0  0  0  0  0
    0.0000    0.0000    0.0000 C   0  0  0  0  0  0  0  0  0  0  0  0
    0.0000    0.0000    0.0000 C   0  0  0  0  0  0  0  0  0  0  0  0
    0.0000    0.0000    0.0000 C   0  0  0  0  0  0  0  0  0  0  0  0
    0.0000    0.0000    0.0000 C   0  0  0  0  0  0  0  0  0  0  0  0
    0.0000    0.0000    0.0000 O   0  0  0  0  0  0  0  0  0  0  0  0
    0.0000    0.0000    0.0000 N   0  0  0  0  0  0  0  0  0  0  0  0
    0.0000    0.0000    0.0000 C   0  0  0  0  0  0  0  0  0  0  0  0
    0.0000    0.0000    0.0000 C   0  0  0  0  0  0  0  0  0  0  0  0
    0.0000    0.0000    0.0000 C   0  0  0  0  0  0  0  0  0  0  0  0
    0.0000    0.0000    0.0000 C   0  0  0  0  0  0  0  0  0  0  0  0
    0.0000    0.0000    0.0000 C   0  0  0  0  0  0  0  0  0  0  0  0
    0.0000    0.0000    0.0000 N   0  0  0  0  0  0  0  0  0  0  0  0
    0.0000    0.0000    0.0000 C   0  0  0  0  0  0  0  0  0  0  0  0
    0.0000    0.0000    0.0000 N   0  0  0  0  0  0  0  0  0  0  0  0
    0.0000    0.0000    0.0000 C   0  0  0  0  0  0  0  0  0  0  0  0
    0.0000    0.0000    0.0000 C   0  0  0  0  0  0  0  0  0  0  0  0
    0.0000    0.0000    0.0000 S   0  0  0  0  0  0  0  0  0  0  0  0
    0.0000    0.0000    0.0000 C   0  0  0  0  0  0  0  0  0  0  0  0
    0.0000    0.0000    0.0000 C   0  0  0  0  0  0  0  0  0  0  0  0
    0.0000    0.0000    0.0000 C   0  0  0  0  0  0  0  0  0  0  0  0
    0.0000    0.0000    0.0000 C   0  0  0  0  0  0  0  0  0  0  0  0
    0.0000    0.0000    0.0000 N   0  0  0  0  0  0  0  0  0  0  0  0
    0.0000    0.0000    0.0000 C   0  0  0  0  0  0  0  0  0  0  0  0
    0.0000    0.0000    0.0000 C   0  0  0  0  0  0  0  0  0  0  0  0
  1  2  1  0
  2  3  2  0
  3  4  1  0
  4  5  2  0
  5  6  1  0
  6  7  2  0
  7  8  1  0
  8  9  1  0
  9 10  2  0
  9 11  1  0
 11 12  2  0
 12 13  1  0
 13 14  2  0
 14 15  1  0
 15 16  2  0
 14 17  1  0
 17 18  2  0
 17 19  1  0
 19 20  1  0
 20 21  2  0
 21 22  1  0
 22 23  2  0
 23 24  1  0
 24 25  1  0
 25 26  1  0
 26 27  2  0
 27 28  1  0
 28 29  2  0
 29 30  1  0
 29 31  1  0
 31 32  2  0
 32 33  1  0
 33 34  2  0
 34 35  1  0
 35 36  2  0
 24 37  2  0
  7  2  1  0
 16 11  1  0
 37 20  1  0
 30 26  1  0
 36 31  1  0
M  END
>  <pIC50>  (191) 
4.41

>  <ChEMBL_ID>  (191) 
CHEMBL474015

>  <document_journal>  (191) 
J. Med. Chem.

>  <bao_endpoint>  (191) 
BAO_0000190

>  <potential_duplicate>  (191) 
False

>  <uo_units>  (191) 
UO_0000065

>  <canonical_smiles>  (191) 
Nc1ccccc1NC(=O)c2ccc(cc2)C(=O)Nc3cccc(Nc4ncc(s4)c5cccnc5)c3

>  <parent_molecule_chembl_id>  (191) 
CHEMBL474015

>  <assay_type>  (191) 
B

>  <src_id>  (191) 
1

>  <ligand_efficiency>  (191) 
{u'le': u'0.16', u'bei': u'8.7', u'sei': u'2.93', u'lle': u'0.55'}

>  <standard_flag>  (191) 
True

>  <molecule_chembl_id>  (191) 
CHEMBL474015

>  <target_organism>  (191) 
Homo sapiens

>  <standard_units>  (191) 
nM

>  <record_id>  (191) 
754160

>  <document_chembl_id>  (191) 
CHEMBL1153406

>  <bao_format>  (191) 
BAO_0000357

>  <data_validity_description>  (191) 
None

>  <activity_id>  (191) 
2280482

>  <standard_type>  (191) 
IC50

>  <target_chembl_id>  (191) 
CHEMBL1862

>  <data_validity_comment>  (191) 
None

>  <published_value>  (191) 
39

>  <document_year>  (191) 
2009

>  <target_pref_name>  (191) 
Tyrosine-protein kinase ABL

>  <assay_chembl_id>  (191) 
CHEMBL1022422

>  <standard_relation>  (191) 
=

>  <assay_description>  (191) 
Inhibition of wild-type c-Abl by liquid scintillation counting

>  <published_relation>  (191) 
=

>  <standard_value>  (191) 
39000

>  <qudt_units>  (191) 
http://www.openphacts.org/units/Nanomolar

>  <target_tax_id>  (191) 
9606

>  <bao_label>  (191) 
single protein format

>  <published_units>  (191) 
uM

>  <pchembl_value>  (191) 
4.41

>  <published_type>  (191) 
IC50

>  <activity_comment>  (191) 
None

$$$$

     RDKit          

 29 32  0  0  0  0  0  0  0  0999 V2000
    0.0000    0.0000    0.0000 C   0  0  0  0  0  0  0  0  0  0  0  0
    0.0000    0.0000    0.0000 C   0  0  0  0  0  0  0  0  0  0  0  0
    0.0000    0.0000    0.0000 C   0  0  0  0  0  0  0  0  0  0  0  0
    0.0000    0.0000    0.0000 C   0  0  0  0  0  0  0  0  0  0  0  0
    0.0000    0.0000    0.0000 O   0  0  0  0  0  0  0  0  0  0  0  0
    0.0000    0.0000    0.0000 N   0  0  0  0  0  0  0  0  0  0  0  0
    0.0000    0.0000    0.0000 C   0  0  0  0  0  0  0  0  0  0  0  0
    0.0000    0.0000    0.0000 C   0  0  0  0  0  0  0  0  0  0  0  0
    0.0000    0.0000    0.0000 C   0  0  0  0  0  0  0  0  0  0  0  0
    0.0000    0.0000    0.0000 C   0  0  0  0  0  0  0  0  0  0  0  0
    0.0000    0.0000    0.0000 C   0  0  0  0  0  0  0  0  0  0  0  0
    0.0000    0.0000    0.0000 C   0  0  0  0  0  0  0  0  0  0  0  0
    0.0000    0.0000    0.0000 C   0  0  0  0  0  0  0  0  0  0  0  0
    0.0000    0.0000    0.0000 C   0  0  0  0  0  0  0  0  0  0  0  0
    0.0000    0.0000    0.0000 C   0  0  0  0  0  0  0  0  0  0  0  0
    0.0000    0.0000    0.0000 F   0  0  0  0  0  0  0  0  0  0  0  0
    0.0000    0.0000    0.0000 F   0  0  0  0  0  0  0  0  0  0  0  0
    0.0000    0.0000    0.0000 F   0  0  0  0  0  0  0  0  0  0  0  0
    0.0000    0.0000    0.0000 C   0  0  0  0  0  0  0  0  0  0  0  0
    0.0000    0.0000    0.0000 C   0  0  0  0  0  0  0  0  0  0  0  0
    0.0000    0.0000    0.0000 C   0  0  0  0  0  0  0  0  0  0  0  0
    0.0000    0.0000    0.0000 C   0  0  0  0  0  0  0  0  0  0  0  0
    0.0000    0.0000    0.0000 N   0  0  0  0  0  0  0  0  0  0  0  0
    0.0000    0.0000    0.0000 C   0  0  0  0  0  0  0  0  0  0  0  0
    0.0000    0.0000    0.0000 N   0  0  0  0  0  0  0  0  0  0  0  0
    0.0000    0.0000    0.0000 N   0  0  0  0  0  0  0  0  0  0  0  0
    0.0000    0.0000    0.0000 C   0  0  0  0  0  0  0  0  0  0  0  0
    0.0000    0.0000    0.0000 C   0  0  0  0  0  0  0  0  0  0  0  0
    0.0000    0.0000    0.0000 C   0  0  0  0  0  0  0  0  0  0  0  0
  1  2  1  0
  2  3  2  0
  3  4  1  0
  4  5  2  0
  4  6  1  0
  6  7  1  0
  7  8  2  0
  6  9  1  0
  9 10  2  0
 10 11  1  0
 11 12  2  0
 12 13  1  0
 13 14  2  0
 13 15  1  0
 15 16  1  0
 15 17  1  0
 15 18  1  0
  3 19  1  0
 19 20  2  0
 20 21  1  0
 21 22  2  0
 22 23  1  0
 23 24  2  0
 24 25  1  0
 24 26  1  0
 26 27  2  0
 27 28  1  0
 28 29  2  0
  8  2  1  0
 14  9  1  0
 29 19  1  0
 28 22  1  0
M  END
>  <pIC50>  (192) 
5.85

>  <ChEMBL_ID>  (192) 
CHEMBL504805

>  <document_journal>  (192) 
J. Med. Chem.

>  <bao_endpoint>  (192) 
BAO_0000190

>  <potential_duplicate>  (192) 
False

>  <uo_units>  (192) 
UO_0000065

>  <canonical_smiles>  (192) 
CC1=C(C(=O)N(C=C1)c2cccc(c2)C(F)(F)F)c3ccc4nc(N)ncc4c3

>  <parent_molecule_chembl_id>  (192) 
CHEMBL504805

>  <assay_type>  (192) 
B

>  <src_id>  (192) 
1

>  <ligand_efficiency>  (192) 
{u'le': u'0.28', u'bei': u'14.77', u'sei': u'8.12', u'lle': u'2.19'}

>  <standard_flag>  (192) 
True

>  <molecule_chembl_id>  (192) 
CHEMBL504805

>  <target_organism>  (192) 
Homo sapiens

>  <standard_units>  (192) 
nM

>  <record_id>  (192) 
766774

>  <document_chembl_id>  (192) 
CHEMBL1150317

>  <bao_format>  (192) 
BAO_0000357

>  <data_validity_description>  (192) 
None

>  <activity_id>  (192) 
2356934

>  <standard_type>  (192) 
IC50

>  <target_chembl_id>  (192) 
CHEMBL1862

>  <data_validity_comment>  (192) 
None

>  <published_value>  (192) 
1.4

>  <document_year>  (192) 
2008

>  <target_pref_name>  (192) 
Tyrosine-protein kinase ABL

>  <assay_chembl_id>  (192) 
CHEMBL955828

>  <standard_relation>  (192) 
=

>  <assay_description>  (192) 
Inhibition of Abl by TR-FRET assay

>  <published_relation>  (192) 
=

>  <standard_value>  (192) 
1400

>  <qudt_units>  (192) 
http://www.openphacts.org/units/Nanomolar

>  <target_tax_id>  (192) 
9606

>  <bao_label>  (192) 
single protein format

>  <published_units>  (192) 
uM

>  <pchembl_value>  (192) 
5.85

>  <published_type>  (192) 
IC50

>  <activity_comment>  (192) 
None

$$$$

     RDKit          

 28 30  0  0  0  0  0  0  0  0999 V2000
    0.0000    0.0000    0.0000 C   0  0  0  0  0  0  0  0  0  0  0  0
    0.0000    0.0000    0.0000 N   0  0  0  0  0  0  0  0  0  0  0  0
    0.0000    0.0000    0.0000 C   0  0  0  0  0  0  0  0  0  0  0  0
    0.0000    0.0000    0.0000 C   0  0  0  0  0  0  0  0  0  0  0  0
    0.0000    0.0000    0.0000 C   0  0  0  0  0  0  0  0  0  0  0  0
    0.0000    0.0000    0.0000 N   0  0  0  0  0  0  0  0  0  0  0  0
    0.0000    0.0000    0.0000 C   0  0  0  0  0  0  0  0  0  0  0  0
    0.0000    0.0000    0.0000 O   0  0  0  0  0  0  0  0  0  0  0  0
    0.0000    0.0000    0.0000 C   0  0  0  0  0  0  0  0  0  0  0  0
    0.0000    0.0000    0.0000 C   0  0  0  0  0  0  0  0  0  0  0  0
    0.0000    0.0000    0.0000 C   0  0  0  0  0  0  0  0  0  0  0  0
    0.0000    0.0000    0.0000 C   0  0  0  0  0  0  0  0  0  0  0  0
    0.0000    0.0000    0.0000 C   0  0  0  0  0  0  0  0  0  0  0  0
    0.0000    0.0000    0.0000 C   0  0  0  0  0  0  0  0  0  0  0  0
    0.0000    0.0000    0.0000 C   0  0  0  0  0  0  0  0  0  0  0  0
    0.0000    0.0000    0.0000 C   0  0  0  0  0  0  0  0  0  0  0  0
    0.0000    0.0000    0.0000 O   0  0  0  0  0  0  0  0  0  0  0  0
    0.0000    0.0000    0.0000 C   0  0  0  0  0  0  0  0  0  0  0  0
    0.0000    0.0000    0.0000 C   0  0  0  0  0  0  0  0  0  0  0  0
    0.0000    0.0000    0.0000 C   0  0  0  0  0  0  0  0  0  0  0  0
    0.0000    0.0000    0.0000 C   0  0  0  0  0  0  0  0  0  0  0  0
    0.0000    0.0000    0.0000 C   0  0  0  0  0  0  0  0  0  0  0  0
    0.0000    0.0000    0.0000 C   0  0  0  0  0  0  0  0  0  0  0  0
    0.0000    0.0000    0.0000 N   0  0  0  0  0  0  0  0  0  0  0  0
    0.0000    0.0000    0.0000 C   0  0  0  0  0  0  0  0  0  0  0  0
    0.0000    0.0000    0.0000 C   0  0  0  0  0  0  0  0  0  0  0  0
    0.0000    0.0000    0.0000 O   0  0  0  0  0  0  0  0  0  0  0  0
    0.0000    0.0000    0.0000 S   0  0  0  0  0  0  0  0  0  0  0  0
  1  2  1  0
  2  3  1  0
  2  4  1  0
  4  5  1  0
  5  6  1  0
  6  7  1  0
  7  8  2  0
  7  9  1  0
  9 10  2  0
 10 11  1  0
 11 12  2  0
 12 13  1  0
 13 14  2  0
 14 15  1  0
 15 16  2  0
 16 17  1  0
 17 18  1  0
 18 19  2  0
 19 20  1  0
 20 21  2  0
 21 22  1  0
 22 23  2  0
 23 24  1  0
 24 25  1  0
 24 26  1  0
 26 27  2  0
 14 28  1  0
 28 11  1  0
 16 26  1  0
 23 18  1  0
M  END
>  <pIC50>  (193) 
6.09

>  <ChEMBL_ID>  (193) 
CHEMBL455404

>  <document_journal>  (193) 
Bioorg. Med. Chem.

>  <bao_endpoint>  (193) 
BAO_0000190

>  <potential_duplicate>  (193) 
False

>  <uo_units>  (193) 
UO_0000065

>  <canonical_smiles>  (193) 
CN(C)CCNC(=O)\C=C\c1ccc(\C=C\2/Oc3ccccc3N(C)C2=O)s1

>  <parent_molecule_chembl_id>  (193) 
CHEMBL455404

>  <assay_type>  (193) 
B

>  <src_id>  (193) 
1

>  <ligand_efficiency>  (193) 
{u'le': u'0.3', u'bei': u'15.31', u'sei': u'6.75', u'lle': u'3.31'}

>  <standard_flag>  (193) 
True

>  <molecule_chembl_id>  (193) 
CHEMBL455404

>  <target_organism>  (193) 
Homo sapiens

>  <standard_units>  (193) 
nM

>  <record_id>  (193) 
729391

>  <document_chembl_id>  (193) 
CHEMBL1140887

>  <bao_format>  (193) 
BAO_0000019

>  <data_validity_description>  (193) 
None

>  <activity_id>  (193) 
2387941

>  <standard_type>  (193) 
IC50

>  <target_chembl_id>  (193) 
CHEMBL1862

>  <data_validity_comment>  (193) 
None

>  <published_value>  (193) 
0.82

>  <document_year>  (193) 
2009

>  <target_pref_name>  (193) 
Tyrosine-protein kinase ABL

>  <assay_chembl_id>  (193) 
CHEMBL1001092

>  <standard_relation>  (193) 
=

>  <assay_description>  (193) 
Inhibition of ABL expressed in baculovirus system by ELISA

>  <published_relation>  (193) 
=

>  <standard_value>  (193) 
820

>  <qudt_units>  (193) 
http://www.openphacts.org/units/Nanomolar

>  <target_tax_id>  (193) 
9606

>  <bao_label>  (193) 
assay format

>  <published_units>  (193) 
uM

>  <pchembl_value>  (193) 
6.09

>  <published_type>  (193) 
IC50

>  <activity_comment>  (193) 
None

$$$$

     RDKit          

 34 38  0  0  0  0  0  0  0  0999 V2000
    0.0000    0.0000    0.0000 O   0  0  0  0  0  0  0  0  0  0  0  0
    0.0000    0.0000    0.0000 C   0  0  0  0  0  0  0  0  0  0  0  0
    0.0000    0.0000    0.0000 N   0  0  0  0  0  0  0  0  0  0  0  0
    0.0000    0.0000    0.0000 C   0  0  0  0  0  0  0  0  0  0  0  0
    0.0000    0.0000    0.0000 C   0  0  0  0  0  0  0  0  0  0  0  0
    0.0000    0.0000    0.0000 C   0  0  0  0  0  0  0  0  0  0  0  0
    0.0000    0.0000    0.0000 C   0  0  0  0  0  0  0  0  0  0  0  0
    0.0000    0.0000    0.0000 C   0  0  0  0  0  0  0  0  0  0  0  0
    0.0000    0.0000    0.0000 C   0  0  0  0  0  0  0  0  0  0  0  0
    0.0000    0.0000    0.0000 N   0  0  0  0  0  0  0  0  0  0  0  0
    0.0000    0.0000    0.0000 C   0  0  0  0  0  0  0  0  0  0  0  0
    0.0000    0.0000    0.0000 C   0  0  0  0  0  0  0  0  0  0  0  0
    0.0000    0.0000    0.0000 O   0  0  0  0  0  0  0  0  0  0  0  0
    0.0000    0.0000    0.0000 C   0  0  0  0  0  0  0  0  0  0  0  0
    0.0000    0.0000    0.0000 C   0  0  0  0  0  0  0  0  0  0  0  0
    0.0000    0.0000    0.0000 C   0  0  0  0  0  0  0  0  0  0  0  0
    0.0000    0.0000    0.0000 C   0  0  0  0  0  0  0  0  0  0  0  0
    0.0000    0.0000    0.0000 C   0  0  0  0  0  0  0  0  0  0  0  0
    0.0000    0.0000    0.0000 C   0  0  0  0  0  0  0  0  0  0  0  0
    0.0000    0.0000    0.0000 C   0  0  0  0  0  0  0  0  0  0  0  0
    0.0000    0.0000    0.0000 C   0  0  0  0  0  0  0  0  0  0  0  0
    0.0000    0.0000    0.0000 C   0  0  0  0  0  0  0  0  0  0  0  0
    0.0000    0.0000    0.0000 C   0  0  0  0  0  0  0  0  0  0  0  0
    0.0000    0.0000    0.0000 O   0  0  0  0  0  0  0  0  0  0  0  0
    0.0000    0.0000    0.0000 C   0  0  0  0  0  0  0  0  0  0  0  0
    0.0000    0.0000    0.0000 C   0  0  0  0  0  0  0  0  0  0  0  0
    0.0000    0.0000    0.0000 C   0  0  0  0  0  0  0  0  0  0  0  0
    0.0000    0.0000    0.0000 C   0  0  0  0  0  0  0  0  0  0  0  0
    0.0000    0.0000    0.0000 C   0  0  0  0  0  0  0  0  0  0  0  0
    0.0000    0.0000    0.0000 C   0  0  0  0  0  0  0  0  0  0  0  0
    0.0000    0.0000    0.0000 N   0  0  0  0  0  0  0  0  0  0  0  0
    0.0000    0.0000    0.0000 C   0  0  0  0  0  0  0  0  0  0  0  0
    0.0000    0.0000    0.0000 O   0  0  0  0  0  0  0  0  0  0  0  0
    0.0000    0.0000    0.0000 S   0  0  0  0  0  0  0  0  0  0  0  0
  1  2  2  0
  2  3  1  0
  3  4  1  0
  4  5  2  0
  5  6  1  0
  6  7  2  0
  7  8  1  0
  8  9  2  0
  7 10  1  0
 10 11  1  0
 11 12  1  0
 12 13  1  0
 13 14  1  0
 14 15  1  0
  2 16  1  0
 16 17  2  0
 17 18  1  0
 18 19  2  0
 19 20  1  0
 20 21  2  0
 21 22  1  0
 22 23  2  0
 23 24  1  0
 24 25  1  0
 25 26  2  0
 26 27  1  0
 27 28  2  0
 28 29  1  0
 29 30  2  0
 30 31  1  0
 31 32  1  0
 32 33  2  0
 21 34  1  0
  9  4  1  0
 15 10  1  0
 34 18  1  0
 23 32  1  0
 30 25  1  0
M  END
>  <pIC50>  (194) 
6.54

>  <ChEMBL_ID>  (194) 
CHEMBL518031

>  <document_journal>  (194) 
Bioorg. Med. Chem.

>  <bao_endpoint>  (194) 
BAO_0000190

>  <potential_duplicate>  (194) 
False

>  <uo_units>  (194) 
UO_0000065

>  <canonical_smiles>  (194) 
O=C(Nc1ccc(cc1)N2CCOCC2)\C=C\c3ccc(\C=C\4/Oc5ccccc5NC4=O)s3

>  <parent_molecule_chembl_id>  (194) 
CHEMBL518031

>  <assay_type>  (194) 
B

>  <src_id>  (194) 
1

>  <ligand_efficiency>  (194) 
{u'le': u'0.26', u'bei': u'13.81', u'sei': u'6.05', u'lle': u'2.68'}

>  <standard_flag>  (194) 
True

>  <molecule_chembl_id>  (194) 
CHEMBL518031

>  <target_organism>  (194) 
Homo sapiens

>  <standard_units>  (194) 
nM

>  <record_id>  (194) 
729574

>  <document_chembl_id>  (194) 
CHEMBL1140887

>  <bao_format>  (194) 
BAO_0000019

>  <data_validity_description>  (194) 
None

>  <activity_id>  (194) 
2387951

>  <standard_type>  (194) 
IC50

>  <target_chembl_id>  (194) 
CHEMBL1862

>  <data_validity_comment>  (194) 
None

>  <published_value>  (194) 
0.29

>  <document_year>  (194) 
2009

>  <target_pref_name>  (194) 
Tyrosine-protein kinase ABL

>  <assay_chembl_id>  (194) 
CHEMBL1001092

>  <standard_relation>  (194) 
=

>  <assay_description>  (194) 
Inhibition of ABL expressed in baculovirus system by ELISA

>  <published_relation>  (194) 
=

>  <standard_value>  (194) 
290

>  <qudt_units>  (194) 
http://www.openphacts.org/units/Nanomolar

>  <target_tax_id>  (194) 
9606

>  <bao_label>  (194) 
assay format

>  <published_units>  (194) 
uM

>  <pchembl_value>  (194) 
6.54

>  <published_type>  (194) 
IC50

>  <activity_comment>  (194) 
None

$$$$

     RDKit          

 30 33  0  0  0  0  0  0  0  0999 V2000
    0.0000    0.0000    0.0000 C   0  0  0  0  0  0  0  0  0  0  0  0
    0.0000    0.0000    0.0000 N   0  0  0  0  0  0  0  0  0  0  0  0
    0.0000    0.0000    0.0000 C   0  0  0  0  0  0  0  0  0  0  0  0
    0.0000    0.0000    0.0000 O   0  0  0  0  0  0  0  0  0  0  0  0
    0.0000    0.0000    0.0000 C   0  0  0  0  0  0  0  0  0  0  0  0
    0.0000    0.0000    0.0000 C   0  0  0  0  0  0  0  0  0  0  0  0
    0.0000    0.0000    0.0000 C   0  0  0  0  0  0  0  0  0  0  0  0
    0.0000    0.0000    0.0000 C   0  0  0  0  0  0  0  0  0  0  0  0
    0.0000    0.0000    0.0000 C   0  0  0  0  0  0  0  0  0  0  0  0
    0.0000    0.0000    0.0000 C   0  0  0  0  0  0  0  0  0  0  0  0
    0.0000    0.0000    0.0000 C   0  0  0  0  0  0  0  0  0  0  0  0
    0.0000    0.0000    0.0000 C   0  0  0  0  0  0  0  0  0  0  0  0
    0.0000    0.0000    0.0000 C   0  0  0  0  0  0  0  0  0  0  0  0
    0.0000    0.0000    0.0000 O   0  0  0  0  0  0  0  0  0  0  0  0
    0.0000    0.0000    0.0000 N   0  0  0  0  0  0  0  0  0  0  0  0
    0.0000    0.0000    0.0000 C   0  0  0  0  0  0  0  0  0  0  0  0
    0.0000    0.0000    0.0000 C   0  0  0  0  0  0  0  0  0  0  0  0
    0.0000    0.0000    0.0000 C   0  0  0  0  0  0  0  0  0  0  0  0
    0.0000    0.0000    0.0000 C   0  0  0  0  0  0  0  0  0  0  0  0
    0.0000    0.0000    0.0000 N   0  0  0  0  0  0  0  0  0  0  0  0
    0.0000    0.0000    0.0000 C   0  0  0  0  0  0  0  0  0  0  0  0
    0.0000    0.0000    0.0000 C   0  0  0  0  0  0  0  0  0  0  0  0
    0.0000    0.0000    0.0000 S   0  0  0  0  0  0  0  0  0  0  0  0
    0.0000    0.0000    0.0000 O   0  0  0  0  0  0  0  0  0  0  0  0
    0.0000    0.0000    0.0000 C   0  0  0  0  0  0  0  0  0  0  0  0
    0.0000    0.0000    0.0000 C   0  0  0  0  0  0  0  0  0  0  0  0
    0.0000    0.0000    0.0000 C   0  0  0  0  0  0  0  0  0  0  0  0
    0.0000    0.0000    0.0000 C   0  0  0  0  0  0  0  0  0  0  0  0
    0.0000    0.0000    0.0000 C   0  0  0  0  0  0  0  0  0  0  0  0
    0.0000    0.0000    0.0000 C   0  0  0  0  0  0  0  0  0  0  0  0
  1  2  1  0
  2  3  1  0
  3  4  2  0
  3  5  1  0
  5  6  2  0
  6  7  1  0
  7  8  2  0
  8  9  1  0
  9 10  2  0
 10 11  1  0
 11 12  2  0
 12 13  1  0
 13 14  2  0
 13 15  1  0
 15 16  1  0
 16 17  1  0
 17 18  2  0
 18 19  1  0
 19 20  2  0
 20 21  1  0
 21 22  2  0
 10 23  1  0
  5 24  1  0
 24 25  1  0
 25 26  2  0
 26 27  1  0
 27 28  2  0
 28 29  1  0
 29 30  2  0
 30  2  1  0
 23  7  1  0
 22 17  1  0
 30 25  1  0
M  END
>  <pIC50>  (195) 
5.75

>  <ChEMBL_ID>  (195) 
CHEMBL461777

>  <document_journal>  (195) 
Bioorg. Med. Chem.

>  <bao_endpoint>  (195) 
BAO_0000190

>  <potential_duplicate>  (195) 
False

>  <uo_units>  (195) 
UO_0000065

>  <canonical_smiles>  (195) 
CN1C(=O)\C(=C\c2ccc(\C=C\C(=O)NCc3ccncc3)s2)\Oc4ccccc14

>  <parent_molecule_chembl_id>  (195) 
CHEMBL461777

>  <assay_type>  (195) 
B

>  <src_id>  (195) 
1

>  <ligand_efficiency>  (195) 
{u'le': u'0.26', u'bei': u'13.78', u'sei': u'5.77', u'lle': u'2.67'}

>  <standard_flag>  (195) 
True

>  <molecule_chembl_id>  (195) 
CHEMBL461777

>  <target_organism>  (195) 
Homo sapiens

>  <standard_units>  (195) 
nM

>  <record_id>  (195) 
729471

>  <document_chembl_id>  (195) 
CHEMBL1140887

>  <bao_format>  (195) 
BAO_0000019

>  <data_validity_description>  (195) 
None

>  <activity_id>  (195) 
2387956

>  <standard_type>  (195) 
IC50

>  <target_chembl_id>  (195) 
CHEMBL1862

>  <data_validity_comment>  (195) 
None

>  <published_value>  (195) 
1.76

>  <document_year>  (195) 
2009

>  <target_pref_name>  (195) 
Tyrosine-protein kinase ABL

>  <assay_chembl_id>  (195) 
CHEMBL1001092

>  <standard_relation>  (195) 
=

>  <assay_description>  (195) 
Inhibition of ABL expressed in baculovirus system by ELISA

>  <published_relation>  (195) 
=

>  <standard_value>  (195) 
1760

>  <qudt_units>  (195) 
http://www.openphacts.org/units/Nanomolar

>  <target_tax_id>  (195) 
9606

>  <bao_label>  (195) 
assay format

>  <published_units>  (195) 
uM

>  <pchembl_value>  (195) 
5.75

>  <published_type>  (195) 
IC50

>  <activity_comment>  (195) 
None

$$$$

     RDKit          

 30 33  0  0  0  0  0  0  0  0999 V2000
    0.0000    0.0000    0.0000 C   0  0  0  0  0  0  0  0  0  0  0  0
    0.0000    0.0000    0.0000 N   0  0  0  0  0  0  0  0  0  0  0  0
    0.0000    0.0000    0.0000 C   0  0  0  0  0  0  0  0  0  0  0  0
    0.0000    0.0000    0.0000 O   0  0  0  0  0  0  0  0  0  0  0  0
    0.0000    0.0000    0.0000 C   0  0  0  0  0  0  0  0  0  0  0  0
    0.0000    0.0000    0.0000 C   0  0  0  0  0  0  0  0  0  0  0  0
    0.0000    0.0000    0.0000 C   0  0  0  0  0  0  0  0  0  0  0  0
    0.0000    0.0000    0.0000 C   0  0  0  0  0  0  0  0  0  0  0  0
    0.0000    0.0000    0.0000 C   0  0  0  0  0  0  0  0  0  0  0  0
    0.0000    0.0000    0.0000 C   0  0  0  0  0  0  0  0  0  0  0  0
    0.0000    0.0000    0.0000 C   0  0  0  0  0  0  0  0  0  0  0  0
    0.0000    0.0000    0.0000 C   0  0  0  0  0  0  0  0  0  0  0  0
    0.0000    0.0000    0.0000 C   0  0  0  0  0  0  0  0  0  0  0  0
    0.0000    0.0000    0.0000 O   0  0  0  0  0  0  0  0  0  0  0  0
    0.0000    0.0000    0.0000 N   0  0  0  0  0  0  0  0  0  0  0  0
    0.0000    0.0000    0.0000 C   0  0  0  0  0  0  0  0  0  0  0  0
    0.0000    0.0000    0.0000 C   0  0  0  0  0  0  0  0  0  0  0  0
    0.0000    0.0000    0.0000 C   0  0  0  0  0  0  0  0  0  0  0  0
    0.0000    0.0000    0.0000 C   0  0  0  0  0  0  0  0  0  0  0  0
    0.0000    0.0000    0.0000 C   0  0  0  0  0  0  0  0  0  0  0  0
    0.0000    0.0000    0.0000 N   0  0  0  0  0  0  0  0  0  0  0  0
    0.0000    0.0000    0.0000 C   0  0  0  0  0  0  0  0  0  0  0  0
    0.0000    0.0000    0.0000 S   0  0  0  0  0  0  0  0  0  0  0  0
    0.0000    0.0000    0.0000 O   0  0  0  0  0  0  0  0  0  0  0  0
    0.0000    0.0000    0.0000 C   0  0  0  0  0  0  0  0  0  0  0  0
    0.0000    0.0000    0.0000 C   0  0  0  0  0  0  0  0  0  0  0  0
    0.0000    0.0000    0.0000 C   0  0  0  0  0  0  0  0  0  0  0  0
    0.0000    0.0000    0.0000 C   0  0  0  0  0  0  0  0  0  0  0  0
    0.0000    0.0000    0.0000 C   0  0  0  0  0  0  0  0  0  0  0  0
    0.0000    0.0000    0.0000 C   0  0  0  0  0  0  0  0  0  0  0  0
  1  2  1  0
  2  3  1  0
  3  4  2  0
  3  5  1  0
  5  6  2  0
  6  7  1  0
  7  8  2  0
  8  9  1  0
  9 10  2  0
 10 11  1  0
 11 12  2  0
 12 13  1  0
 13 14  2  0
 13 15  1  0
 15 16  1  0
 16 17  1  0
 17 18  2  0
 18 19  1  0
 19 20  2  0
 20 21  1  0
 21 22  2  0
 10 23  1  0
  5 24  1  0
 24 25  1  0
 25 26  2  0
 26 27  1  0
 27 28  2  0
 28 29  1  0
 29 30  2  0
 30  2  1  0
 23  7  1  0
 22 17  1  0
 30 25  1  0
M  END
>  <pIC50>  (196) 
5.72

>  <ChEMBL_ID>  (196) 
CHEMBL461776

>  <document_journal>  (196) 
Bioorg. Med. Chem.

>  <bao_endpoint>  (196) 
BAO_0000190

>  <potential_duplicate>  (196) 
False

>  <uo_units>  (196) 
UO_0000065

>  <canonical_smiles>  (196) 
CN1C(=O)\C(=C\c2ccc(\C=C\C(=O)NCc3cccnc3)s2)\Oc4ccccc14

>  <parent_molecule_chembl_id>  (196) 
CHEMBL461776

>  <assay_type>  (196) 
B

>  <src_id>  (196) 
1

>  <ligand_efficiency>  (196) 
{u'le': u'0.26', u'bei': u'13.7', u'sei': u'5.73', u'lle': u'2.64'}

>  <standard_flag>  (196) 
True

>  <molecule_chembl_id>  (196) 
CHEMBL461776

>  <target_organism>  (196) 
Homo sapiens

>  <standard_units>  (196) 
nM

>  <record_id>  (196) 
729470

>  <document_chembl_id>  (196) 
CHEMBL1140887

>  <bao_format>  (196) 
BAO_0000019

>  <data_validity_description>  (196) 
None

>  <activity_id>  (196) 
2387957

>  <standard_type>  (196) 
IC50

>  <target_chembl_id>  (196) 
CHEMBL1862

>  <data_validity_comment>  (196) 
None

>  <published_value>  (196) 
1.9

>  <document_year>  (196) 
2009

>  <target_pref_name>  (196) 
Tyrosine-protein kinase ABL

>  <assay_chembl_id>  (196) 
CHEMBL1001092

>  <standard_relation>  (196) 
=

>  <assay_description>  (196) 
Inhibition of ABL expressed in baculovirus system by ELISA

>  <published_relation>  (196) 
=

>  <standard_value>  (196) 
1900

>  <qudt_units>  (196) 
http://www.openphacts.org/units/Nanomolar

>  <target_tax_id>  (196) 
9606

>  <bao_label>  (196) 
assay format

>  <published_units>  (196) 
uM

>  <pchembl_value>  (196) 
5.72

>  <published_type>  (196) 
IC50

>  <activity_comment>  (196) 
None

$$$$

     RDKit          

 32 34  0  0  0  0  0  0  0  0999 V2000
    0.0000    0.0000    0.0000 C   0  0  0  0  0  0  0  0  0  0  0  0
    0.0000    0.0000    0.0000 N   0  0  0  0  0  0  0  0  0  0  0  0
    0.0000    0.0000    0.0000 C   0  0  0  0  0  0  0  0  0  0  0  0
    0.0000    0.0000    0.0000 O   0  0  0  0  0  0  0  0  0  0  0  0
    0.0000    0.0000    0.0000 C   0  0  0  0  0  0  0  0  0  0  0  0
    0.0000    0.0000    0.0000 C   0  0  0  0  0  0  0  0  0  0  0  0
    0.0000    0.0000    0.0000 C   0  0  0  0  0  0  0  0  0  0  0  0
    0.0000    0.0000    0.0000 O   0  0  0  0  0  0  0  0  0  0  0  0
    0.0000    0.0000    0.0000 C   0  0  0  0  0  0  0  0  0  0  0  0
    0.0000    0.0000    0.0000 C   0  0  0  0  0  0  0  0  0  0  0  0
    0.0000    0.0000    0.0000 C   0  0  0  0  0  0  0  0  0  0  0  0
    0.0000    0.0000    0.0000 C   0  0  0  0  0  0  0  0  0  0  0  0
    0.0000    0.0000    0.0000 N   0  0  0  0  0  0  0  0  0  0  0  0
    0.0000    0.0000    0.0000 C   0  0  0  0  0  0  0  0  0  0  0  0
    0.0000    0.0000    0.0000 O   0  0  0  0  0  0  0  0  0  0  0  0
    0.0000    0.0000    0.0000 N   0  0  0  0  0  0  0  0  0  0  0  0
    0.0000    0.0000    0.0000 C   0  0  0  0  0  0  0  0  0  0  0  0
    0.0000    0.0000    0.0000 C   0  0  0  0  0  0  0  0  0  0  0  0
    0.0000    0.0000    0.0000 C   0  0  0  0  0  0  0  0  0  0  0  0
    0.0000    0.0000    0.0000 C   0  0  0  0  0  0  0  0  0  0  0  0
    0.0000    0.0000    0.0000 Cl  0  0  0  0  0  0  0  0  0  0  0  0
    0.0000    0.0000    0.0000 C   0  0  0  0  0  0  0  0  0  0  0  0
    0.0000    0.0000    0.0000 C   0  0  0  0  0  0  0  0  0  0  0  0
    0.0000    0.0000    0.0000 C   0  0  0  0  0  0  0  0  0  0  0  0
    0.0000    0.0000    0.0000 F   0  0  0  0  0  0  0  0  0  0  0  0
    0.0000    0.0000    0.0000 F   0  0  0  0  0  0  0  0  0  0  0  0
    0.0000    0.0000    0.0000 F   0  0  0  0  0  0  0  0  0  0  0  0
    0.0000    0.0000    0.0000 C   0  0  0  0  0  0  0  0  0  0  0  0
    0.0000    0.0000    0.0000 C   0  0  0  0  0  0  0  0  0  0  0  0
    0.0000    0.0000    0.0000 C   0  0  0  0  0  0  0  0  0  0  0  0
    0.0000    0.0000    0.0000 C   0  0  0  0  0  0  0  0  0  0  0  0
    0.0000    0.0000    0.0000 N   0  0  0  0  0  0  0  0  0  0  0  0
  1  2  1  0
  2  3  1  0
  3  4  2  0
  3  5  1  0
  5  6  2  0
  6  7  1  0
  7  8  1  0
  8  9  1  0
  9 10  2  0
 10 11  1  0
 11 12  2  0
 12 13  1  0
 13 14  1  0
 14 15  2  0
 14 16  1  0
 16 17  1  0
 17 18  2  0
 18 19  1  0
 19 20  2  0
 20 21  1  0
 20 22  1  0
 22 23  2  0
 22 24  1  0
 24 25  1  0
 24 26  1  0
 24 27  1  0
 12 28  1  0
 28 29  2  0
  7 30  2  0
 30 31  1  0
 31 32  2  0
 32  5  1  0
 29  9  1  0
 23 17  1  0
M  END
>  <pIC50>  (197) 
7.01

>  <ChEMBL_ID>  (197) 
CHEMBL1336

>  <document_journal>  (197) 
J. Med. Chem.

>  <bao_endpoint>  (197) 
BAO_0000190

>  <potential_duplicate>  (197) 
False

>  <uo_units>  (197) 
UO_0000065

>  <canonical_smiles>  (197) 
CNC(=O)c1cc(Oc2ccc(NC(=O)Nc3ccc(Cl)c(c3)C(F)(F)F)cc2)ccn1

>  <parent_molecule_chembl_id>  (197) 
CHEMBL1336

>  <assay_type>  (197) 
B

>  <src_id>  (197) 
1

>  <ligand_efficiency>  (197) 
{u'le': u'0.3', u'bei': u'15.27', u'sei': u'7.68', u'lle': u'2.92'}

>  <standard_flag>  (197) 
True

>  <molecule_chembl_id>  (197) 
CHEMBL1336

>  <target_organism>  (197) 
Homo sapiens

>  <standard_units>  (197) 
nM

>  <record_id>  (197) 
804437

>  <document_chembl_id>  (197) 
CHEMBL1152273

>  <bao_format>  (197) 
BAO_0000357

>  <data_validity_description>  (197) 
None

>  <activity_id>  (197) 
2397099

>  <standard_type>  (197) 
IC50

>  <target_chembl_id>  (197) 
CHEMBL1862

>  <data_validity_comment>  (197) 
None

>  <published_value>  (197) 
80

>  <document_year>  (197) 
2008

>  <target_pref_name>  (197) 
Tyrosine-protein kinase ABL

>  <assay_chembl_id>  (197) 
CHEMBL946291

>  <standard_relation>  (197) 
=

>  <assay_description>  (197) 
Inhibition of cAbl

>  <published_relation>  (197) 
=

>  <standard_value>  (197) 
80

>  <qudt_units>  (197) 
http://www.openphacts.org/units/Nanomolar

>  <target_tax_id>  (197) 
9606

>  <bao_label>  (197) 
single protein format

>  <published_units>  (197) 
nM

>  <pchembl_value>  (197) 
7.1

>  <published_type>  (197) 
IC50

>  <activity_comment>  (197) 
None

$$$$

     RDKit          

 29 31  0  0  0  0  0  0  0  0999 V2000
    0.0000    0.0000    0.0000 C   0  0  0  0  0  0  0  0  0  0  0  0
    0.0000    0.0000    0.0000 C   0  0  0  0  0  0  0  0  0  0  0  0
    0.0000    0.0000    0.0000 C   0  0  0  0  0  0  0  0  0  0  0  0
    0.0000    0.0000    0.0000 C   0  0  0  0  0  0  0  0  0  0  0  0
    0.0000    0.0000    0.0000 C   0  0  0  0  0  0  0  0  0  0  0  0
    0.0000    0.0000    0.0000 N   0  0  0  0  0  0  0  0  0  0  0  0
    0.0000    0.0000    0.0000 C   0  0  0  0  0  0  0  0  0  0  0  0
    0.0000    0.0000    0.0000 O   0  0  0  0  0  0  0  0  0  0  0  0
    0.0000    0.0000    0.0000 C   0  0  0  0  0  0  0  0  0  0  0  0
    0.0000    0.0000    0.0000 C   0  0  0  0  0  0  0  0  0  0  0  0
    0.0000    0.0000    0.0000 C   0  0  0  0  0  0  0  0  0  0  0  0
    0.0000    0.0000    0.0000 C   0  0  0  0  0  0  0  0  0  0  0  0
    0.0000    0.0000    0.0000 C   0  0  0  0  0  0  0  0  0  0  0  0
    0.0000    0.0000    0.0000 C   0  0  0  0  0  0  0  0  0  0  0  0
    0.0000    0.0000    0.0000 C   0  0  0  0  0  0  0  0  0  0  0  0
    0.0000    0.0000    0.0000 F   0  0  0  0  0  0  0  0  0  0  0  0
    0.0000    0.0000    0.0000 F   0  0  0  0  0  0  0  0  0  0  0  0
    0.0000    0.0000    0.0000 F   0  0  0  0  0  0  0  0  0  0  0  0
    0.0000    0.0000    0.0000 C   0  0  0  0  0  0  0  0  0  0  0  0
    0.0000    0.0000    0.0000 C   0  0  0  0  0  0  0  0  0  0  0  0
    0.0000    0.0000    0.0000 C   0  0  0  0  0  0  0  0  0  0  0  0
    0.0000    0.0000    0.0000 O   0  0  0  0  0  0  0  0  0  0  0  0
    0.0000    0.0000    0.0000 N   0  0  0  0  0  0  0  0  0  0  0  0
    0.0000    0.0000    0.0000 C   0  0  0  0  0  0  0  0  0  0  0  0
    0.0000    0.0000    0.0000 C   0  0  0  0  0  0  0  0  0  0  0  0
    0.0000    0.0000    0.0000 N   0  0  0  0  0  0  0  0  0  0  0  0
    0.0000    0.0000    0.0000 C   0  0  0  0  0  0  0  0  0  0  0  0
    0.0000    0.0000    0.0000 N   0  0  0  0  0  0  0  0  0  0  0  0
    0.0000    0.0000    0.0000 C   0  0  0  0  0  0  0  0  0  0  0  0
  1  2  1  0
  2  3  2  0
  3  4  1  0
  4  5  2  0
  5  6  1  0
  6  7  1  0
  7  8  2  0
  7  9  1  0
  9 10  2  0
 10 11  1  0
 11 12  2  0
 12 13  1  0
 13 14  2  0
 13 15  1  0
 15 16  1  0
 15 17  1  0
 15 18  1  0
  5 19  1  0
 19 20  2  0
 20 21  1  0
 21 22  2  0
 21 23  1  0
 23 24  1  0
 24 25  2  0
 25 26  1  0
 26 27  2  0
 27 28  1  0
 28 29  2  0
 20  2  1  0
 14  9  1  0
 29 24  1  0
M  END
>  <pIC50>  (198) 
6.62

>  <ChEMBL_ID>  (198) 
CHEMBL259247

>  <document_journal>  (198) 
Bioorg. Med. Chem. Lett.

>  <bao_endpoint>  (198) 
BAO_0000190

>  <potential_duplicate>  (198) 
False

>  <uo_units>  (198) 
UO_0000065

>  <canonical_smiles>  (198) 
Cc1ccc(NC(=O)c2cccc(c2)C(F)(F)F)cc1C(=O)Nc3cncnc3

>  <parent_molecule_chembl_id>  (198) 
CHEMBL259247

>  <assay_type>  (198) 
B

>  <src_id>  (198) 
1

>  <ligand_efficiency>  (198) 
{u'le': u'0.31', u'bei': u'16.54', u'sei': u'7.88', u'lle': u'3.57'}

>  <standard_flag>  (198) 
True

>  <molecule_chembl_id>  (198) 
CHEMBL259247

>  <target_organism>  (198) 
Homo sapiens

>  <standard_units>  (198) 
nM

>  <record_id>  (198) 
718787

>  <document_chembl_id>  (198) 
CHEMBL1158158

>  <bao_format>  (198) 
BAO_0000357

>  <data_validity_description>  (198) 
None

>  <activity_id>  (198) 
2449748

>  <standard_type>  (198) 
IC50

>  <target_chembl_id>  (198) 
CHEMBL1862

>  <data_validity_comment>  (198) 
None

>  <published_value>  (198) 
0.24

>  <document_year>  (198) 
2008

>  <target_pref_name>  (198) 
Tyrosine-protein kinase ABL

>  <assay_chembl_id>  (198) 
CHEMBL946393

>  <standard_relation>  (198) 
=

>  <assay_description>  (198) 
Inhibition of Abl

>  <published_relation>  (198) 
=

>  <standard_value>  (198) 
240

>  <qudt_units>  (198) 
http://www.openphacts.org/units/Nanomolar

>  <target_tax_id>  (198) 
9606

>  <bao_label>  (198) 
single protein format

>  <published_units>  (198) 
uM

>  <pchembl_value>  (198) 
6.62

>  <published_type>  (198) 
IC50

>  <activity_comment>  (198) 
None

$$$$

     RDKit          

 28 31  0  0  0  0  0  0  0  0999 V2000
    0.0000    0.0000    0.0000 C   0  0  0  0  0  0  0  0  0  0  0  0
    0.0000    0.0000    0.0000 N   0  0  0  0  0  0  0  0  0  0  0  0
    0.0000    0.0000    0.0000 C   0  0  0  0  0  0  0  0  0  0  0  0
    0.0000    0.0000    0.0000 C   0  0  0  0  0  0  0  0  0  0  0  0
    0.0000    0.0000    0.0000 N   0  0  0  0  0  0  0  0  0  0  0  0
    0.0000    0.0000    0.0000 C   0  0  0  0  0  0  0  0  0  0  0  0
    0.0000    0.0000    0.0000 C   0  0  0  0  0  0  0  0  0  0  0  0
    0.0000    0.0000    0.0000 C   0  0  0  0  0  0  0  0  0  0  0  0
    0.0000    0.0000    0.0000 C   0  0  0  0  0  0  0  0  0  0  0  0
    0.0000    0.0000    0.0000 C   0  0  0  0  0  0  0  0  0  0  0  0
    0.0000    0.0000    0.0000 N   0  0  0  0  0  0  0  0  0  0  0  0
    0.0000    0.0000    0.0000 C   0  0  0  0  0  0  0  0  0  0  0  0
    0.0000    0.0000    0.0000 C   0  0  0  0  0  0  0  0  0  0  0  0
    0.0000    0.0000    0.0000 C   0  0  0  0  0  0  0  0  0  0  0  0
    0.0000    0.0000    0.0000 C   0  0  0  0  0  0  0  0  0  0  0  0
    0.0000    0.0000    0.0000 N   0  0  0  0  0  0  0  0  0  0  0  0
    0.0000    0.0000    0.0000 N   0  0  0  0  0  0  0  0  0  0  0  0
    0.0000    0.0000    0.0000 N   0  0  0  0  0  0  0  0  0  0  0  0
    0.0000    0.0000    0.0000 C   0  0  0  0  0  0  0  0  0  0  0  0
    0.0000    0.0000    0.0000 C   0  0  0  0  0  0  0  0  0  0  0  0
    0.0000    0.0000    0.0000 C   0  0  0  0  0  0  0  0  0  0  0  0
    0.0000    0.0000    0.0000 C   0  0  0  0  0  0  0  0  0  0  0  0
    0.0000    0.0000    0.0000 C   0  0  0  0  0  0  0  0  0  0  0  0
    0.0000    0.0000    0.0000 C   0  0  0  0  0  0  0  0  0  0  0  0
    0.0000    0.0000    0.0000 C   0  0  0  0  0  0  0  0  0  0  0  0
    0.0000    0.0000    0.0000 C   0  0  0  0  0  0  0  0  0  0  0  0
    0.0000    0.0000    0.0000 C   0  0  0  0  0  0  0  0  0  0  0  0
    0.0000    0.0000    0.0000 N   0  0  0  0  0  0  0  0  0  0  0  0
  1  2  1  0
  2  3  1  0
  3  4  1  0
  4  5  1  0
  5  6  1  0
  6  7  1  0
  5  8  1  0
  8  9  2  0
  9 10  1  0
 10 11  1  0
 11 12  1  0
 12 13  1  0
 13 14  2  0
 14 15  1  0
 14 16  1  0
 16 17  1  0
 10 18  2  0
 18 19  1  0
 19 20  1  0
 20 21  2  0
 21 22  1  0
 22 23  2  0
 23 24  1  0
 24 25  2  0
 25 26  1  0
 26 27  2  0
 19 28  2  0
  7  2  1  0
 28  8  1  0
 17 12  2  0
 27 22  1  0
M  END
>  <pIC50>  (199) 
6.81

>  <ChEMBL_ID>  (199) 
CHEMBL482968

>  <document_journal>  (199) 
J. Med. Chem.

>  <bao_endpoint>  (199) 
BAO_0000190

>  <potential_duplicate>  (199) 
False

>  <uo_units>  (199) 
UO_0000065

>  <canonical_smiles>  (199) 
CN1CCN(CC1)c2cc(Nc3cc(C)[nH]n3)nc(\C=C\c4ccccc4)n2

>  <parent_molecule_chembl_id>  (199) 
CHEMBL482968

>  <assay_type>  (199) 
B

>  <src_id>  (199) 
1

>  <ligand_efficiency>  (199) 
{u'le': u'0.32', u'bei': u'17.39', u'sei': u'8.95', u'lle': u'2.51'}

>  <standard_flag>  (199) 
True

>  <molecule_chembl_id>  (199) 
CHEMBL482968

>  <target_organism>  (199) 
Homo sapiens

>  <standard_units>  (199) 
nM

>  <record_id>  (199) 
808533

>  <document_chembl_id>  (199) 
CHEMBL1154007

>  <bao_format>  (199) 
BAO_0000357

>  <data_validity_description>  (199) 
None

>  <activity_id>  (199) 
2526370

>  <standard_type>  (199) 
IC50

>  <target_chembl_id>  (199) 
CHEMBL1862

>  <data_validity_comment>  (199) 
None

>  <published_value>  (199) 
295

>  <document_year>  (199) 
2009

>  <target_pref_name>  (199) 
Tyrosine-protein kinase ABL

>  <assay_chembl_id>  (199) 
CHEMBL981408

>  <standard_relation>  (199) 
=

>  <assay_description>  (199) 
Inhibition of Abl

>  <published_relation>  (199) 
=

>  <standard_value>  (199) 
295

>  <qudt_units>  (199) 
http://www.openphacts.org/units/Nanomolar

>  <target_tax_id>  (199) 
9606

>  <bao_label>  (199) 
single protein format

>  <published_units>  (199) 
nM

>  <pchembl_value>  (199) 
6.53

>  <published_type>  (199) 
IC50

>  <activity_comment>  (199) 
None

$$$$

     RDKit          

 28 32  0  0  0  0  0  0  0  0999 V2000
    0.0000    0.0000    0.0000 O   0  0  0  0  0  0  0  0  0  0  0  0
    0.0000    0.0000    0.0000 C   0  0  0  0  0  0  0  0  0  0  0  0
    0.0000    0.0000    0.0000 N   0  0  0  0  0  0  0  0  0  0  0  0
    0.0000    0.0000    0.0000 C   0  0  0  0  0  0  0  0  0  0  0  0
    0.0000    0.0000    0.0000 C   0  0  0  0  0  0  0  0  0  0  0  0
    0.0000    0.0000    0.0000 C   0  0  0  0  0  0  0  0  0  0  0  0
    0.0000    0.0000    0.0000 N   0  0  0  0  0  0  0  0  0  0  0  0
    0.0000    0.0000    0.0000 C   0  0  0  0  0  0  0  0  0  0  0  0
    0.0000    0.0000    0.0000 C   0  0  0  0  0  0  0  0  0  0  0  0
    0.0000    0.0000    0.0000 N   0  0  0  0  0  0  0  0  0  0  0  0
    0.0000    0.0000    0.0000 N   0  0  0  0  0  0  0  0  0  0  0  0
    0.0000    0.0000    0.0000 C   0  0  0  0  0  0  0  0  0  0  0  0
    0.0000    0.0000    0.0000 C   0  0  0  0  0  0  0  0  0  0  0  0
    0.0000    0.0000    0.0000 N   0  0  0  0  0  0  0  0  0  0  0  0
    0.0000    0.0000    0.0000 C   0  0  0  0  0  0  0  0  0  0  0  0
    0.0000    0.0000    0.0000 C   0  0  0  0  0  0  0  0  0  0  0  0
    0.0000    0.0000    0.0000 C   0  0  0  0  0  0  0  0  0  0  0  0
    0.0000    0.0000    0.0000 C   0  0  0  0  0  0  0  0  0  0  0  0
    0.0000    0.0000    0.0000 N   0  0  0  0  0  0  0  0  0  0  0  0
    0.0000    0.0000    0.0000 C   0  0  0  0  0  0  0  0  0  0  0  0
    0.0000    0.0000    0.0000 C   0  0  0  0  0  0  0  0  0  0  0  0
    0.0000    0.0000    0.0000 O   0  0  0  0  0  0  0  0  0  0  0  0
    0.0000    0.0000    0.0000 C   0  0  0  0  0  0  0  0  0  0  0  0
    0.0000    0.0000    0.0000 C   0  0  0  0  0  0  0  0  0  0  0  0
    0.0000    0.0000    0.0000 C   0  0  0  0  0  0  0  0  0  0  0  0
    0.0000    0.0000    0.0000 C   0  0  0  0  0  0  0  0  0  0  0  0
    0.0000    0.0000    0.0000 C   0  0  0  0  0  0  0  0  0  0  0  0
    0.0000    0.0000    0.0000 N   0  0  0  0  0  0  0  0  0  0  0  0
  1  2  2  0
  2  3  1  0
  3  4  1  0
  4  5  1  0
  5  6  1  0
  2  7  1  0
  7  8  1  0
  8  9  2  0
  9 10  1  0
 10 11  1  0
 11 12  2  0
 12 13  1  0
 13 14  2  0
 14 15  1  0
 15 16  2  0
 16 17  1  0
 17 18  1  0
 18 19  1  0
 19 20  1  0
 20 21  1  0
 21 22  1  0
 22 23  1  0
 23 24  1  0
 17 25  2  0
 25 26  1  0
 26 27  2  0
 27 28  1  0
  6  4  1  0
 12  8  1  0
 28 13  1  0
 27 15  1  0
 24 19  1  0
M  END
>  <pIC50>  (200) 
8.4

>  <ChEMBL_ID>  (200) 
CHEMBL495727

>  <document_journal>  (200) 
J. Med. Chem.

>  <bao_endpoint>  (200) 
BAO_0000190

>  <potential_duplicate>  (200) 
False

>  <uo_units>  (200) 
UO_0000065

>  <canonical_smiles>  (200) 
O=C(NC1CC1)Nc2c[nH]nc2c3nc4cc(CN5CCOCC5)ccc4[nH]3

>  <parent_molecule_chembl_id>  (200) 
CHEMBL495727

>  <assay_type>  (200) 
B

>  <src_id>  (200) 
1

>  <ligand_efficiency>  (200) 
{u'le': u'0.41', u'bei': u'22.02', u'sei': u'7.57', u'lle': u'6.89'}

>  <standard_flag>  (200) 
True

>  <molecule_chembl_id>  (200) 
CHEMBL495727

>  <target_organism>  (200) 
Homo sapiens

>  <standard_units>  (200) 
nM

>  <record_id>  (200) 
808456

>  <document_chembl_id>  (200) 
CHEMBL1154007

>  <bao_format>  (200) 
BAO_0000357

>  <data_validity_description>  (200) 
None

>  <activity_id>  (200) 
2526372

>  <standard_type>  (200) 
IC50

>  <target_chembl_id>  (200) 
CHEMBL1862

>  <data_validity_comment>  (200) 
None

>  <published_value>  (200) 
4

>  <document_year>  (200) 
2009

>  <target_pref_name>  (200) 
Tyrosine-protein kinase ABL

>  <assay_chembl_id>  (200) 
CHEMBL981409

>  <standard_relation>  (200) 
=

>  <assay_description>  (200) 
Inhibition of Abl T315I mutant

>  <published_relation>  (200) 
=

>  <standard_value>  (200) 
4

>  <qudt_units>  (200) 
http://www.openphacts.org/units/Nanomolar

>  <target_tax_id>  (200) 
9606

>  <bao_label>  (200) 
single protein format

>  <published_units>  (200) 
nM

>  <pchembl_value>  (200) 
8.4

>  <published_type>  (200) 
IC50

>  <activity_comment>  (200) 
None

$$$$

     RDKit          

 44 48  0  0  0  0  0  0  0  0999 V2000
    0.0000    0.0000    0.0000 C   0  0  0  0  0  0  0  0  0  0  0  0
    0.0000    0.0000    0.0000 O   0  0  0  0  0  0  0  0  0  0  0  0
    0.0000    0.0000    0.0000 C   0  0  0  0  0  0  0  0  0  0  0  0
    0.0000    0.0000    0.0000 C   0  0  0  0  0  0  0  0  0  0  0  0
    0.0000    0.0000    0.0000 N   0  0  0  0  0  0  0  0  0  0  0  0
    0.0000    0.0000    0.0000 C   0  0  0  0  0  0  0  0  0  0  0  0
    0.0000    0.0000    0.0000 O   0  0  0  0  0  0  0  0  0  0  0  0
    0.0000    0.0000    0.0000 N   0  0  0  0  0  0  0  0  0  0  0  0
    0.0000    0.0000    0.0000 C   0  0  0  0  0  0  0  0  0  0  0  0
    0.0000    0.0000    0.0000 C   0  0  0  0  0  0  0  0  0  0  0  0
    0.0000    0.0000    0.0000 C   0  0  0  0  0  0  0  0  0  0  0  0
    0.0000    0.0000    0.0000 C   0  0  0  0  0  0  0  0  0  0  0  0
    0.0000    0.0000    0.0000 C   0  0  0  0  0  0  0  0  0  0  0  0
    0.0000    0.0000    0.0000 C   0  0  0  0  0  0  0  0  0  0  0  0
    0.0000    0.0000    0.0000 C   0  0  0  0  0  0  0  0  0  0  0  0
    0.0000    0.0000    0.0000 C   0  0  0  0  0  0  0  0  0  0  0  0
    0.0000    0.0000    0.0000 C   0  0  0  0  0  0  0  0  0  0  0  0
    0.0000    0.0000    0.0000 N   0  0  0  0  0  0  0  0  0  0  0  0
    0.0000    0.0000    0.0000 C   0  0  0  0  0  0  0  0  0  0  0  0
    0.0000    0.0000    0.0000 C   0  0  0  0  0  0  0  0  0  0  0  0
    0.0000    0.0000    0.0000 O   0  0  0  0  0  0  0  0  0  0  0  0
    0.0000    0.0000    0.0000 C   0  0  0  0  0  0  0  0  0  0  0  0
    0.0000    0.0000    0.0000 C   0  0  0  0  0  0  0  0  0  0  0  0
    0.0000    0.0000    0.0000 N   0  0  0  0  0  0  0  0  0  0  0  0
    0.0000    0.0000    0.0000 C   0  0  0  0  0  0  0  0  0  0  0  0
    0.0000    0.0000    0.0000 C   0  0  0  0  0  0  0  0  0  0  0  0
    0.0000    0.0000    0.0000 C   0  0  0  0  0  0  0  0  0  0  0  0
    0.0000    0.0000    0.0000 C   0  0  0  0  0  0  0  0  0  0  0  0
    0.0000    0.0000    0.0000 C   0  0  0  0  0  0  0  0  0  0  0  0
    0.0000    0.0000    0.0000 C   0  0  0  0  0  0  0  0  0  0  0  0
    0.0000    0.0000    0.0000 C   0  0  0  0  0  0  0  0  0  0  0  0
    0.0000    0.0000    0.0000 C   0  0  0  0  0  0  0  0  0  0  0  0
    0.0000    0.0000    0.0000 C   0  0  0  0  0  0  0  0  0  0  0  0
    0.0000    0.0000    0.0000 C   0  0  0  0  0  0  0  0  0  0  0  0
    0.0000    0.0000    0.0000 C   0  0  0  0  0  0  0  0  0  0  0  0
    0.0000    0.0000    0.0000 N   0  0  0  0  0  0  0  0  0  0  0  0
    0.0000    0.0000    0.0000 S   0  0  0  0  0  0  0  0  0  0  0  0
    0.0000    0.0000    0.0000 O   0  0  0  0  0  0  0  0  0  0  0  0
    0.0000    0.0000    0.0000 O   0  0  0  0  0  0  0  0  0  0  0  0
    0.0000    0.0000    0.0000 C   0  0  0  0  0  0  0  0  0  0  0  0
    0.0000    0.0000    0.0000 C   0  0  0  0  0  0  0  0  0  0  0  0
    0.0000    0.0000    0.0000 C   0  0  0  0  0  0  0  0  0  0  0  0
    0.0000    0.0000    0.0000 C   0  0  0  0  0  0  0  0  0  0  0  0
    0.0000    0.0000    0.0000 C   0  0  0  0  0  0  0  0  0  0  0  0
  1  2  1  0
  2  3  1  0
  3  4  2  0
  4  5  1  0
  5  6  1  0
  6  7  2  0
  6  8  1  0
  8  9  1  0
  9 10  2  0
 10 11  1  0
 11 12  2  0
 12 13  1  0
 13 14  2  0
 14 15  1  0
 15 16  2  0
 16 17  1  0
 17 18  1  0
 18 19  1  0
 19 20  1  0
 20 21  1  0
 21 22  1  0
 22 23  1  0
 16 24  1  0
 24 25  2  0
 12 26  1  0
 26 27  2  0
 27 28  1  0
 28 29  2  0
 29 30  1  0
 30 31  2  0
  4 32  1  0
 32 33  2  0
 33 34  1  0
 34 35  2  0
 35 36  1  0
 36 37  1  0
 37 38  2  0
 37 39  2  0
 37 40  1  0
 33 41  1  0
 41 42  1  0
 41 43  1  0
 41 44  1  0
 35  3  1  0
 31  9  1  0
 25 13  1  0
 23 18  1  0
 31 26  1  0
M  END
>  <pIC50>  (201) 
6.32

>  <ChEMBL_ID>  (201) 
CHEMBL451523

>  <document_journal>  (201) 
Bioorg. Med. Chem. Lett.

>  <bao_endpoint>  (201) 
BAO_0000190

>  <potential_duplicate>  (201) 
False

>  <uo_units>  (201) 
UO_0000065

>  <canonical_smiles>  (201) 
COc1c(NC(=O)Nc2ccc(c3ccc(CN4CCOCC4)nc3)c5ccccc25)cc(cc1NS(=O)(=O)C)C(C)(C)C

>  <parent_molecule_chembl_id>  (201) 
CHEMBL451523

>  <assay_type>  (201) 
B

>  <src_id>  (201) 
1

>  <ligand_efficiency>  (201) 
{u'le': u'0.2', u'bei': u'10.23', u'sei': u'4.85', u'lle': u'2.25'}

>  <standard_flag>  (201) 
True

>  <molecule_chembl_id>  (201) 
CHEMBL451523

>  <target_organism>  (201) 
Homo sapiens

>  <standard_units>  (201) 
nM

>  <record_id>  (201) 
808617

>  <document_chembl_id>  (201) 
CHEMBL1138470

>  <bao_format>  (201) 
BAO_0000357

>  <data_validity_description>  (201) 
None

>  <activity_id>  (201) 
2527191

>  <standard_type>  (201) 
IC50

>  <target_chembl_id>  (201) 
CHEMBL1862

>  <data_validity_comment>  (201) 
None

>  <published_value>  (201) 
0.48

>  <document_year>  (201) 
2009

>  <target_pref_name>  (201) 
Tyrosine-protein kinase ABL

>  <assay_chembl_id>  (201) 
CHEMBL984172

>  <standard_relation>  (201) 
=

>  <assay_description>  (201) 
Inhibition of Abl

>  <published_relation>  (201) 
=

>  <standard_value>  (201) 
480

>  <qudt_units>  (201) 
http://www.openphacts.org/units/Nanomolar

>  <target_tax_id>  (201) 
9606

>  <bao_label>  (201) 
single protein format

>  <published_units>  (201) 
uM

>  <pchembl_value>  (201) 
6.32

>  <published_type>  (201) 
IC50

>  <activity_comment>  (201) 
None

$$$$

     RDKit          

 33 36  0  0  0  0  0  0  0  0999 V2000
    0.0000    0.0000    0.0000 C   0  0  0  0  0  0  0  0  0  0  0  0
    0.0000    0.0000    0.0000 N   0  0  0  0  0  0  0  0  0  0  0  0
    0.0000    0.0000    0.0000 C   0  0  0  0  0  0  0  0  0  0  0  0
    0.0000    0.0000    0.0000 N   0  0  0  0  0  0  0  0  0  0  0  0
    0.0000    0.0000    0.0000 C   0  0  0  0  0  0  0  0  0  0  0  0
    0.0000    0.0000    0.0000 N   0  0  0  0  0  0  0  0  0  0  0  0
    0.0000    0.0000    0.0000 C   0  0  0  0  0  0  0  0  0  0  0  0
    0.0000    0.0000    0.0000 C   0  0  0  0  0  0  0  0  0  0  0  0
    0.0000    0.0000    0.0000 N   0  0  0  0  0  0  0  0  0  0  0  0
    0.0000    0.0000    0.0000 C   0  0  0  0  0  0  0  0  0  0  0  0
    0.0000    0.0000    0.0000 N   0  0  0  0  0  0  0  0  0  0  0  0
    0.0000    0.0000    0.0000 C   0  0  0  0  0  0  0  0  0  0  0  0
    0.0000    0.0000    0.0000 C   0  0  0  0  0  0  0  0  0  0  0  0
    0.0000    0.0000    0.0000 C   0  0  0  0  0  0  0  0  0  0  0  0
    0.0000    0.0000    0.0000 C   0  0  0  0  0  0  0  0  0  0  0  0
    0.0000    0.0000    0.0000 C   0  0  0  0  0  0  0  0  0  0  0  0
    0.0000    0.0000    0.0000 N   0  0  0  0  0  0  0  0  0  0  0  0
    0.0000    0.0000    0.0000 C   0  0  0  0  0  0  0  0  0  0  0  0
    0.0000    0.0000    0.0000 O   0  0  0  0  0  0  0  0  0  0  0  0
    0.0000    0.0000    0.0000 C   0  0  0  0  0  0  0  0  0  0  0  0
    0.0000    0.0000    0.0000 C   0  0  0  0  0  0  0  0  0  0  0  0
    0.0000    0.0000    0.0000 C   0  0  0  0  0  0  0  0  0  0  0  0
    0.0000    0.0000    0.0000 C   0  0  0  0  0  0  0  0  0  0  0  0
    0.0000    0.0000    0.0000 C   0  0  0  0  0  0  0  0  0  0  0  0
    0.0000    0.0000    0.0000 C   0  0  0  0  0  0  0  0  0  0  0  0
    0.0000    0.0000    0.0000 C   0  0  0  0  0  0  0  0  0  0  0  0
    0.0000    0.0000    0.0000 F   0  0  0  0  0  0  0  0  0  0  0  0
    0.0000    0.0000    0.0000 F   0  0  0  0  0  0  0  0  0  0  0  0
    0.0000    0.0000    0.0000 F   0  0  0  0  0  0  0  0  0  0  0  0
    0.0000    0.0000    0.0000 C   0  0  0  0  0  0  0  0  0  0  0  0
    0.0000    0.0000    0.0000 C   0  0  0  0  0  0  0  0  0  0  0  0
    0.0000    0.0000    0.0000 C   0  0  0  0  0  0  0  0  0  0  0  0
    0.0000    0.0000    0.0000 C   0  0  0  0  0  0  0  0  0  0  0  0
  1  2  1  0
  2  3  1  0
  3  4  2  0
  4  5  1  0
  5  6  2  0
  6  7  1  0
  7  8  2  0
  8  9  1  0
  9 10  2  0
 10 11  1  0
 11 12  1  0
 12 13  1  0
 13 14  1  0
 14 15  2  0
 15 16  1  0
 16 17  1  0
 17 18  1  0
 18 19  2  0
 18 20  1  0
 20 21  2  0
 21 22  1  0
 22 23  2  0
 23 24  1  0
 24 25  2  0
 24 26  1  0
 26 27  1  0
 26 28  1  0
 26 29  1  0
 16 30  2  0
 30 31  1  0
 31 32  2  0
 32 33  1  0
  8  3  1  0
 11  7  1  0
 32 14  1  0
 25 20  1  0
M  END
>  <pIC50>  (202) 
4.02

>  <ChEMBL_ID>  (202) 
CHEMBL550623

>  <document_journal>  (202) 
J. Med. Chem.

>  <bao_endpoint>  (202) 
BAO_0000190

>  <potential_duplicate>  (202) 
False

>  <uo_units>  (202) 
UO_0000065

>  <canonical_smiles>  (202) 
CNc1ncnc2c1ncn2CCc3cc(NC(=O)c4cccc(c4)C(F)(F)F)ccc3C

>  <parent_molecule_chembl_id>  (202) 
CHEMBL550623

>  <assay_type>  (202) 
B

>  <src_id>  (202) 
1

>  <ligand_efficiency>  (202) 
{u'le': u'0.17', u'bei': u'8.84', u'sei': u'4.74', u'lle': u'-0.42'}

>  <standard_flag>  (202) 
True

>  <molecule_chembl_id>  (202) 
CHEMBL550623

>  <target_organism>  (202) 
Homo sapiens

>  <standard_units>  (202) 
nM

>  <record_id>  (202) 
815549

>  <document_chembl_id>  (202) 
CHEMBL1158470

>  <bao_format>  (202) 
BAO_0000357

>  <data_validity_description>  (202) 
None

>  <activity_id>  (202) 
2653241

>  <standard_type>  (202) 
IC50

>  <target_chembl_id>  (202) 
CHEMBL1862

>  <data_validity_comment>  (202) 
None

>  <published_value>  (202) 
96

>  <document_year>  (202) 
2009

>  <target_pref_name>  (202) 
Tyrosine-protein kinase ABL

>  <assay_chembl_id>  (202) 
CHEMBL1031882

>  <standard_relation>  (202) 
=

>  <assay_description>  (202) 
Inhibition of wild type human Abl kinase by TR-FRET assay

>  <published_relation>  (202) 
=

>  <standard_value>  (202) 
96000

>  <qudt_units>  (202) 
http://www.openphacts.org/units/Nanomolar

>  <target_tax_id>  (202) 
9606

>  <bao_label>  (202) 
single protein format

>  <published_units>  (202) 
uM

>  <pchembl_value>  (202) 
4.02

>  <published_type>  (202) 
IC50

>  <activity_comment>  (202) 
None

$$$$

     RDKit          

 33 36  0  0  0  0  0  0  0  0999 V2000
    0.0000    0.0000    0.0000 C   0  0  0  0  0  0  0  0  0  0  0  0
    0.0000    0.0000    0.0000 N   0  0  0  0  0  0  0  0  0  0  0  0
    0.0000    0.0000    0.0000 C   0  0  0  0  0  0  0  0  0  0  0  0
    0.0000    0.0000    0.0000 N   0  0  0  0  0  0  0  0  0  0  0  0
    0.0000    0.0000    0.0000 C   0  0  0  0  0  0  0  0  0  0  0  0
    0.0000    0.0000    0.0000 N   0  0  0  0  0  0  0  0  0  0  0  0
    0.0000    0.0000    0.0000 C   0  0  0  0  0  0  0  0  0  0  0  0
    0.0000    0.0000    0.0000 C   0  0  0  0  0  0  0  0  0  0  0  0
    0.0000    0.0000    0.0000 N   0  0  0  0  0  0  0  0  0  0  0  0
    0.0000    0.0000    0.0000 C   0  0  0  0  0  0  0  0  0  0  0  0
    0.0000    0.0000    0.0000 N   0  0  0  0  0  0  0  0  0  0  0  0
    0.0000    0.0000    0.0000 C   0  0  0  0  0  0  0  0  0  0  0  0
    0.0000    0.0000    0.0000 C   0  0  0  0  0  0  0  0  0  0  0  0
    0.0000    0.0000    0.0000 C   0  0  0  0  0  0  0  0  0  0  0  0
    0.0000    0.0000    0.0000 C   0  0  0  0  0  0  0  0  0  0  0  0
    0.0000    0.0000    0.0000 C   0  0  0  0  0  0  0  0  0  0  0  0
    0.0000    0.0000    0.0000 N   0  0  0  0  0  0  0  0  0  0  0  0
    0.0000    0.0000    0.0000 C   0  0  0  0  0  0  0  0  0  0  0  0
    0.0000    0.0000    0.0000 O   0  0  0  0  0  0  0  0  0  0  0  0
    0.0000    0.0000    0.0000 C   0  0  0  0  0  0  0  0  0  0  0  0
    0.0000    0.0000    0.0000 C   0  0  0  0  0  0  0  0  0  0  0  0
    0.0000    0.0000    0.0000 C   0  0  0  0  0  0  0  0  0  0  0  0
    0.0000    0.0000    0.0000 C   0  0  0  0  0  0  0  0  0  0  0  0
    0.0000    0.0000    0.0000 C   0  0  0  0  0  0  0  0  0  0  0  0
    0.0000    0.0000    0.0000 C   0  0  0  0  0  0  0  0  0  0  0  0
    0.0000    0.0000    0.0000 C   0  0  0  0  0  0  0  0  0  0  0  0
    0.0000    0.0000    0.0000 F   0  0  0  0  0  0  0  0  0  0  0  0
    0.0000    0.0000    0.0000 F   0  0  0  0  0  0  0  0  0  0  0  0
    0.0000    0.0000    0.0000 F   0  0  0  0  0  0  0  0  0  0  0  0
    0.0000    0.0000    0.0000 C   0  0  0  0  0  0  0  0  0  0  0  0
    0.0000    0.0000    0.0000 C   0  0  0  0  0  0  0  0  0  0  0  0
    0.0000    0.0000    0.0000 C   0  0  0  0  0  0  0  0  0  0  0  0
    0.0000    0.0000    0.0000 C   0  0  0  0  0  0  0  0  0  0  0  0
  1  2  1  0
  2  3  1  0
  3  4  2  0
  4  5  1  0
  5  6  2  0
  6  7  1  0
  7  8  2  0
  8  9  1  0
  9 10  2  0
 10 11  1  0
 11 12  1  0
 12 13  2  0
 13 14  1  0
 14 15  2  0
 15 16  1  0
 16 17  1  0
 17 18  1  0
 18 19  2  0
 18 20  1  0
 20 21  2  0
 21 22  1  0
 22 23  2  0
 23 24  1  0
 24 25  2  0
 24 26  1  0
 26 27  1  0
 26 28  1  0
 26 29  1  0
 16 30  2  0
 30 31  1  0
 31 32  2  0
 32 33  1  0
  8  3  1  0
 11  7  1  0
 32 14  1  0
 25 20  1  0
M  END
>  <pIC50>  (203) 
4.6

>  <ChEMBL_ID>  (203) 
CHEMBL558475

>  <document_journal>  (203) 
J. Med. Chem.

>  <bao_endpoint>  (203) 
BAO_0000190

>  <potential_duplicate>  (203) 
False

>  <uo_units>  (203) 
UO_0000065

>  <canonical_smiles>  (203) 
CNc1ncnc2c1ncn2\C=C\c3cc(NC(=O)c4cccc(c4)C(F)(F)F)ccc3C

>  <parent_molecule_chembl_id>  (203) 
CHEMBL558475

>  <assay_type>  (203) 
B

>  <src_id>  (203) 
1

>  <ligand_efficiency>  (203) 
{u'le': u'0.19', u'bei': u'10.17', u'sei': u'5.43', u'lle': u'0.55'}

>  <standard_flag>  (203) 
True

>  <molecule_chembl_id>  (203) 
CHEMBL558475

>  <target_organism>  (203) 
Homo sapiens

>  <standard_units>  (203) 
nM

>  <record_id>  (203) 
815550

>  <document_chembl_id>  (203) 
CHEMBL1158470

>  <bao_format>  (203) 
BAO_0000357

>  <data_validity_description>  (203) 
None

>  <activity_id>  (203) 
2653242

>  <standard_type>  (203) 
IC50

>  <target_chembl_id>  (203) 
CHEMBL1862

>  <data_validity_comment>  (203) 
None

>  <published_value>  (203) 
25

>  <document_year>  (203) 
2009

>  <target_pref_name>  (203) 
Tyrosine-protein kinase ABL

>  <assay_chembl_id>  (203) 
CHEMBL1031882

>  <standard_relation>  (203) 
=

>  <assay_description>  (203) 
Inhibition of wild type human Abl kinase by TR-FRET assay

>  <published_relation>  (203) 
=

>  <standard_value>  (203) 
25000

>  <qudt_units>  (203) 
http://www.openphacts.org/units/Nanomolar

>  <target_tax_id>  (203) 
9606

>  <bao_label>  (203) 
single protein format

>  <published_units>  (203) 
uM

>  <pchembl_value>  (203) 
4.6

>  <published_type>  (203) 
IC50

>  <activity_comment>  (203) 
None

$$$$

     RDKit          

 35 39  0  0  0  0  0  0  0  0999 V2000
    0.0000    0.0000    0.0000 C   0  0  0  0  0  0  0  0  0  0  0  0
    0.0000    0.0000    0.0000 C   0  0  0  0  0  0  0  0  0  0  0  0
    0.0000    0.0000    0.0000 C   0  0  0  0  0  0  0  0  0  0  0  0
    0.0000    0.0000    0.0000 C   0  0  0  0  0  0  0  0  0  0  0  0
    0.0000    0.0000    0.0000 C   0  0  0  0  0  0  0  0  0  0  0  0
    0.0000    0.0000    0.0000 N   0  0  0  0  0  0  0  0  0  0  0  0
    0.0000    0.0000    0.0000 C   0  0  0  0  0  0  0  0  0  0  0  0
    0.0000    0.0000    0.0000 O   0  0  0  0  0  0  0  0  0  0  0  0
    0.0000    0.0000    0.0000 C   0  0  0  0  0  0  0  0  0  0  0  0
    0.0000    0.0000    0.0000 C   0  0  0  0  0  0  0  0  0  0  0  0
    0.0000    0.0000    0.0000 C   0  0  0  0  0  0  0  0  0  0  0  0
    0.0000    0.0000    0.0000 C   0  0  0  0  0  0  0  0  0  0  0  0
    0.0000    0.0000    0.0000 C   0  0  0  0  0  0  0  0  0  0  0  0
    0.0000    0.0000    0.0000 C   0  0  0  0  0  0  0  0  0  0  0  0
    0.0000    0.0000    0.0000 C   0  0  0  0  0  0  0  0  0  0  0  0
    0.0000    0.0000    0.0000 F   0  0  0  0  0  0  0  0  0  0  0  0
    0.0000    0.0000    0.0000 F   0  0  0  0  0  0  0  0  0  0  0  0
    0.0000    0.0000    0.0000 F   0  0  0  0  0  0  0  0  0  0  0  0
    0.0000    0.0000    0.0000 C   0  0  0  0  0  0  0  0  0  0  0  0
    0.0000    0.0000    0.0000 C   0  0  0  0  0  0  0  0  0  0  0  0
    0.0000    0.0000    0.0000 C   0  0  0  0  0  0  0  0  0  0  0  0
    0.0000    0.0000    0.0000 C   0  0  0  0  0  0  0  0  0  0  0  0
    0.0000    0.0000    0.0000 N   0  0  0  0  0  0  0  0  0  0  0  0
    0.0000    0.0000    0.0000 C   0  0  0  0  0  0  0  0  0  0  0  0
    0.0000    0.0000    0.0000 N   0  0  0  0  0  0  0  0  0  0  0  0
    0.0000    0.0000    0.0000 C   0  0  0  0  0  0  0  0  0  0  0  0
    0.0000    0.0000    0.0000 C   0  0  0  0  0  0  0  0  0  0  0  0
    0.0000    0.0000    0.0000 N   0  0  0  0  0  0  0  0  0  0  0  0
    0.0000    0.0000    0.0000 C   0  0  0  0  0  0  0  0  0  0  0  0
    0.0000    0.0000    0.0000 C   0  0  0  0  0  0  0  0  0  0  0  0
    0.0000    0.0000    0.0000 C   0  0  0  0  0  0  0  0  0  0  0  0
    0.0000    0.0000    0.0000 N   0  0  0  0  0  0  0  0  0  0  0  0
    0.0000    0.0000    0.0000 C   0  0  0  0  0  0  0  0  0  0  0  0
    0.0000    0.0000    0.0000 N   0  0  0  0  0  0  0  0  0  0  0  0
    0.0000    0.0000    0.0000 C   0  0  0  0  0  0  0  0  0  0  0  0
  1  2  1  0
  2  3  2  0
  3  4  1  0
  4  5  2  0
  5  6  1  0
  6  7  1  0
  7  8  2  0
  7  9  1  0
  9 10  2  0
 10 11  1  0
 11 12  2  0
 12 13  1  0
 13 14  2  0
 13 15  1  0
 15 16  1  0
 15 17  1  0
 15 18  1  0
  5 19  1  0
 19 20  2  0
 20 21  1  0
 21 22  2  0
 22 23  1  0
 23 24  1  0
 24 25  2  0
 25 26  1  0
 26 27  2  0
 27 28  1  0
 28 29  1  0
 29 30  1  0
 30 31  1  0
 27 32  1  0
 32 33  2  0
 33 34  1  0
 34 35  2  0
 20  2  1  0
 14  9  1  0
 35 23  1  0
 35 26  1  0
 31 29  1  0
M  END
>  <pIC50>  (204) 
4.13

>  <ChEMBL_ID>  (204) 
CHEMBL564575

>  <document_journal>  (204) 
J. Med. Chem.

>  <bao_endpoint>  (204) 
BAO_0000190

>  <potential_duplicate>  (204) 
False

>  <uo_units>  (204) 
UO_0000065

>  <canonical_smiles>  (204) 
Cc1ccc(NC(=O)c2cccc(c2)C(F)(F)F)cc1\C=C\n3cnc4c(NC5CC5)ncnc34

>  <parent_molecule_chembl_id>  (204) 
CHEMBL564575

>  <assay_type>  (204) 
B

>  <src_id>  (204) 
1

>  <ligand_efficiency>  (204) 
{u'le': u'0.16', u'bei': u'8.63', u'sei': u'4.88', u'lle': u'-0.41'}

>  <standard_flag>  (204) 
True

>  <molecule_chembl_id>  (204) 
CHEMBL564575

>  <target_organism>  (204) 
Homo sapiens

>  <standard_units>  (204) 
nM

>  <record_id>  (204) 
815551

>  <document_chembl_id>  (204) 
CHEMBL1158470

>  <bao_format>  (204) 
BAO_0000357

>  <data_validity_description>  (204) 
None

>  <activity_id>  (204) 
2653243

>  <standard_type>  (204) 
IC50

>  <target_chembl_id>  (204) 
CHEMBL1862

>  <data_validity_comment>  (204) 
None

>  <published_value>  (204) 
74

>  <document_year>  (204) 
2009

>  <target_pref_name>  (204) 
Tyrosine-protein kinase ABL

>  <assay_chembl_id>  (204) 
CHEMBL1031882

>  <standard_relation>  (204) 
=

>  <assay_description>  (204) 
Inhibition of wild type human Abl kinase by TR-FRET assay

>  <published_relation>  (204) 
=

>  <standard_value>  (204) 
74000

>  <qudt_units>  (204) 
http://www.openphacts.org/units/Nanomolar

>  <target_tax_id>  (204) 
9606

>  <bao_label>  (204) 
single protein format

>  <published_units>  (204) 
uM

>  <pchembl_value>  (204) 
4.13

>  <published_type>  (204) 
IC50

>  <activity_comment>  (204) 
None

$$$$

     RDKit          

 38 42  0  0  0  0  0  0  0  0999 V2000
    0.0000    0.0000    0.0000 C   0  0  0  0  0  0  0  0  0  0  0  0
    0.0000    0.0000    0.0000 C   0  0  0  0  0  0  0  0  0  0  0  0
    0.0000    0.0000    0.0000 C   0  0  0  0  0  0  0  0  0  0  0  0
    0.0000    0.0000    0.0000 C   0  0  0  0  0  0  0  0  0  0  0  0
    0.0000    0.0000    0.0000 C   0  0  0  0  0  0  0  0  0  0  0  0
    0.0000    0.0000    0.0000 N   0  0  0  0  0  0  0  0  0  0  0  0
    0.0000    0.0000    0.0000 C   0  0  0  0  0  0  0  0  0  0  0  0
    0.0000    0.0000    0.0000 O   0  0  0  0  0  0  0  0  0  0  0  0
    0.0000    0.0000    0.0000 C   0  0  0  0  0  0  0  0  0  0  0  0
    0.0000    0.0000    0.0000 C   0  0  0  0  0  0  0  0  0  0  0  0
    0.0000    0.0000    0.0000 C   0  0  0  0  0  0  0  0  0  0  0  0
    0.0000    0.0000    0.0000 C   0  0  0  0  0  0  0  0  0  0  0  0
    0.0000    0.0000    0.0000 C   0  0  0  0  0  0  0  0  0  0  0  0
    0.0000    0.0000    0.0000 C   0  0  0  0  0  0  0  0  0  0  0  0
    0.0000    0.0000    0.0000 C   0  0  0  0  0  0  0  0  0  0  0  0
    0.0000    0.0000    0.0000 F   0  0  0  0  0  0  0  0  0  0  0  0
    0.0000    0.0000    0.0000 F   0  0  0  0  0  0  0  0  0  0  0  0
    0.0000    0.0000    0.0000 F   0  0  0  0  0  0  0  0  0  0  0  0
    0.0000    0.0000    0.0000 C   0  0  0  0  0  0  0  0  0  0  0  0
    0.0000    0.0000    0.0000 C   0  0  0  0  0  0  0  0  0  0  0  0
    0.0000    0.0000    0.0000 C   0  0  0  0  0  0  0  0  0  0  0  0
    0.0000    0.0000    0.0000 C   0  0  0  0  0  0  0  0  0  0  0  0
    0.0000    0.0000    0.0000 N   0  0  0  0  0  0  0  0  0  0  0  0
    0.0000    0.0000    0.0000 C   0  0  0  0  0  0  0  0  0  0  0  0
    0.0000    0.0000    0.0000 N   0  0  0  0  0  0  0  0  0  0  0  0
    0.0000    0.0000    0.0000 C   0  0  0  0  0  0  0  0  0  0  0  0
    0.0000    0.0000    0.0000 C   0  0  0  0  0  0  0  0  0  0  0  0
    0.0000    0.0000    0.0000 N   0  0  0  0  0  0  0  0  0  0  0  0
    0.0000    0.0000    0.0000 C   0  0  0  0  0  0  0  0  0  0  0  0
    0.0000    0.0000    0.0000 C   0  0  0  0  0  0  0  0  0  0  0  0
    0.0000    0.0000    0.0000 C   0  0  0  0  0  0  0  0  0  0  0  0
    0.0000    0.0000    0.0000 C   0  0  0  0  0  0  0  0  0  0  0  0
    0.0000    0.0000    0.0000 N   0  0  0  0  0  0  0  0  0  0  0  0
    0.0000    0.0000    0.0000 C   0  0  0  0  0  0  0  0  0  0  0  0
    0.0000    0.0000    0.0000 N   0  0  0  0  0  0  0  0  0  0  0  0
    0.0000    0.0000    0.0000 C   0  0  0  0  0  0  0  0  0  0  0  0
    0.0000    0.0000    0.0000 N   0  0  0  0  0  0  0  0  0  0  0  0
    0.0000    0.0000    0.0000 C   0  0  0  0  0  0  0  0  0  0  0  0
  1  2  1  0
  2  3  2  0
  3  4  1  0
  4  5  2  0
  5  6  1  0
  6  7  1  0
  7  8  2  0
  7  9  1  0
  9 10  2  0
 10 11  1  0
 11 12  2  0
 12 13  1  0
 13 14  2  0
 13 15  1  0
 15 16  1  0
 15 17  1  0
 15 18  1  0
  5 19  1  0
 19 20  2  0
 20 21  1  0
 21 22  2  0
 22 23  1  0
 23 24  1  0
 24 25  2  0
 25 26  1  0
 26 27  2  0
 27 28  1  0
 28 29  1  0
 29 30  2  0
 30 31  1  0
 31 32  2  0
 32 33  1  0
 33 34  2  0
 27 35  1  0
 35 36  2  0
 36 37  1  0
 37 38  2  0
 20  2  1  0
 14  9  1  0
 38 23  1  0
 38 26  1  0
 34 29  1  0
M  END
>  <pIC50>  (205) 
4.59

>  <ChEMBL_ID>  (205) 
CHEMBL551031

>  <document_journal>  (205) 
J. Med. Chem.

>  <bao_endpoint>  (205) 
BAO_0000190

>  <potential_duplicate>  (205) 
False

>  <uo_units>  (205) 
UO_0000065

>  <canonical_smiles>  (205) 
Cc1ccc(NC(=O)c2cccc(c2)C(F)(F)F)cc1\C=C\n3cnc4c(Nc5cccnc5)ncnc34

>  <parent_molecule_chembl_id>  (205) 
CHEMBL551031

>  <assay_type>  (205) 
B

>  <src_id>  (205) 
1

>  <ligand_efficiency>  (205) 
{u'le': u'0.16', u'bei': u'8.89', u'sei': u'4.7', u'lle': u'-0.05'}

>  <standard_flag>  (205) 
True

>  <molecule_chembl_id>  (205) 
CHEMBL551031

>  <target_organism>  (205) 
Homo sapiens

>  <standard_units>  (205) 
nM

>  <record_id>  (205) 
815628

>  <document_chembl_id>  (205) 
CHEMBL1158470

>  <bao_format>  (205) 
BAO_0000357

>  <data_validity_description>  (205) 
None

>  <activity_id>  (205) 
2653245

>  <standard_type>  (205) 
IC50

>  <target_chembl_id>  (205) 
CHEMBL1862

>  <data_validity_comment>  (205) 
None

>  <published_value>  (205) 
26

>  <document_year>  (205) 
2009

>  <target_pref_name>  (205) 
Tyrosine-protein kinase ABL

>  <assay_chembl_id>  (205) 
CHEMBL1031882

>  <standard_relation>  (205) 
=

>  <assay_description>  (205) 
Inhibition of wild type human Abl kinase by TR-FRET assay

>  <published_relation>  (205) 
=

>  <standard_value>  (205) 
26000

>  <qudt_units>  (205) 
http://www.openphacts.org/units/Nanomolar

>  <target_tax_id>  (205) 
9606

>  <bao_label>  (205) 
single protein format

>  <published_units>  (205) 
uM

>  <pchembl_value>  (205) 
4.59

>  <published_type>  (205) 
IC50

>  <activity_comment>  (205) 
None

$$$$

     RDKit          

 38 42  0  0  0  0  0  0  0  0999 V2000
    0.0000    0.0000    0.0000 C   0  0  0  0  0  0  0  0  0  0  0  0
    0.0000    0.0000    0.0000 C   0  0  0  0  0  0  0  0  0  0  0  0
    0.0000    0.0000    0.0000 C   0  0  0  0  0  0  0  0  0  0  0  0
    0.0000    0.0000    0.0000 C   0  0  0  0  0  0  0  0  0  0  0  0
    0.0000    0.0000    0.0000 C   0  0  0  0  0  0  0  0  0  0  0  0
    0.0000    0.0000    0.0000 N   0  0  0  0  0  0  0  0  0  0  0  0
    0.0000    0.0000    0.0000 C   0  0  0  0  0  0  0  0  0  0  0  0
    0.0000    0.0000    0.0000 O   0  0  0  0  0  0  0  0  0  0  0  0
    0.0000    0.0000    0.0000 C   0  0  0  0  0  0  0  0  0  0  0  0
    0.0000    0.0000    0.0000 C   0  0  0  0  0  0  0  0  0  0  0  0
    0.0000    0.0000    0.0000 C   0  0  0  0  0  0  0  0  0  0  0  0
    0.0000    0.0000    0.0000 C   0  0  0  0  0  0  0  0  0  0  0  0
    0.0000    0.0000    0.0000 C   0  0  0  0  0  0  0  0  0  0  0  0
    0.0000    0.0000    0.0000 C   0  0  0  0  0  0  0  0  0  0  0  0
    0.0000    0.0000    0.0000 C   0  0  0  0  0  0  0  0  0  0  0  0
    0.0000    0.0000    0.0000 F   0  0  0  0  0  0  0  0  0  0  0  0
    0.0000    0.0000    0.0000 F   0  0  0  0  0  0  0  0  0  0  0  0
    0.0000    0.0000    0.0000 F   0  0  0  0  0  0  0  0  0  0  0  0
    0.0000    0.0000    0.0000 C   0  0  0  0  0  0  0  0  0  0  0  0
    0.0000    0.0000    0.0000 C   0  0  0  0  0  0  0  0  0  0  0  0
    0.0000    0.0000    0.0000 C   0  0  0  0  0  0  0  0  0  0  0  0
    0.0000    0.0000    0.0000 C   0  0  0  0  0  0  0  0  0  0  0  0
    0.0000    0.0000    0.0000 N   0  0  0  0  0  0  0  0  0  0  0  0
    0.0000    0.0000    0.0000 C   0  0  0  0  0  0  0  0  0  0  0  0
    0.0000    0.0000    0.0000 N   0  0  0  0  0  0  0  0  0  0  0  0
    0.0000    0.0000    0.0000 C   0  0  0  0  0  0  0  0  0  0  0  0
    0.0000    0.0000    0.0000 C   0  0  0  0  0  0  0  0  0  0  0  0
    0.0000    0.0000    0.0000 N   0  0  0  0  0  0  0  0  0  0  0  0
    0.0000    0.0000    0.0000 C   0  0  0  0  0  0  0  0  0  0  0  0
    0.0000    0.0000    0.0000 C   0  0  0  0  0  0  0  0  0  0  0  0
    0.0000    0.0000    0.0000 C   0  0  0  0  0  0  0  0  0  0  0  0
    0.0000    0.0000    0.0000 N   0  0  0  0  0  0  0  0  0  0  0  0
    0.0000    0.0000    0.0000 C   0  0  0  0  0  0  0  0  0  0  0  0
    0.0000    0.0000    0.0000 C   0  0  0  0  0  0  0  0  0  0  0  0
    0.0000    0.0000    0.0000 N   0  0  0  0  0  0  0  0  0  0  0  0
    0.0000    0.0000    0.0000 C   0  0  0  0  0  0  0  0  0  0  0  0
    0.0000    0.0000    0.0000 N   0  0  0  0  0  0  0  0  0  0  0  0
    0.0000    0.0000    0.0000 C   0  0  0  0  0  0  0  0  0  0  0  0
  1  2  1  0
  2  3  2  0
  3  4  1  0
  4  5  2  0
  5  6  1  0
  6  7  1  0
  7  8  2  0
  7  9  1  0
  9 10  2  0
 10 11  1  0
 11 12  2  0
 12 13  1  0
 13 14  2  0
 13 15  1  0
 15 16  1  0
 15 17  1  0
 15 18  1  0
  5 19  1  0
 19 20  2  0
 20 21  1  0
 21 22  2  0
 22 23  1  0
 23 24  1  0
 24 25  2  0
 25 26  1  0
 26 27  2  0
 27 28  1  0
 28 29  1  0
 29 30  2  0
 30 31  1  0
 31 32  2  0
 32 33  1  0
 33 34  2  0
 27 35  1  0
 35 36  2  0
 36 37  1  0
 37 38  2  0
 20  2  1  0
 14  9  1  0
 38 23  1  0
 38 26  1  0
 34 29  1  0
M  END
>  <pIC50>  (206) 
5.0

>  <ChEMBL_ID>  (206) 
CHEMBL551229

>  <document_journal>  (206) 
J. Med. Chem.

>  <bao_endpoint>  (206) 
BAO_0000190

>  <potential_duplicate>  (206) 
False

>  <uo_units>  (206) 
UO_0000065

>  <canonical_smiles>  (206) 
Cc1ccc(NC(=O)c2cccc(c2)C(F)(F)F)cc1\C=C\n3cnc4c(Nc5ccncc5)ncnc34

>  <parent_molecule_chembl_id>  (206) 
CHEMBL551229

>  <assay_type>  (206) 
B

>  <src_id>  (206) 
1

>  <ligand_efficiency>  (206) 
{u'le': u'0.18', u'bei': u'9.71', u'sei': u'5.13', u'lle': u'0.36'}

>  <standard_flag>  (206) 
True

>  <molecule_chembl_id>  (206) 
CHEMBL551229

>  <target_organism>  (206) 
Homo sapiens

>  <standard_units>  (206) 
nM

>  <record_id>  (206) 
815629

>  <document_chembl_id>  (206) 
CHEMBL1158470

>  <bao_format>  (206) 
BAO_0000357

>  <data_validity_description>  (206) 
None

>  <activity_id>  (206) 
2653246

>  <standard_type>  (206) 
IC50

>  <target_chembl_id>  (206) 
CHEMBL1862

>  <data_validity_comment>  (206) 
None

>  <published_value>  (206) 
9.9

>  <document_year>  (206) 
2009

>  <target_pref_name>  (206) 
Tyrosine-protein kinase ABL

>  <assay_chembl_id>  (206) 
CHEMBL1031882

>  <standard_relation>  (206) 
=

>  <assay_description>  (206) 
Inhibition of wild type human Abl kinase by TR-FRET assay

>  <published_relation>  (206) 
=

>  <standard_value>  (206) 
9900

>  <qudt_units>  (206) 
http://www.openphacts.org/units/Nanomolar

>  <target_tax_id>  (206) 
9606

>  <bao_label>  (206) 
single protein format

>  <published_units>  (206) 
uM

>  <pchembl_value>  (206) 
5

>  <published_type>  (206) 
IC50

>  <activity_comment>  (206) 
None

$$$$

     RDKit          

 38 42  0  0  0  0  0  0  0  0999 V2000
    0.0000    0.0000    0.0000 C   0  0  0  0  0  0  0  0  0  0  0  0
    0.0000    0.0000    0.0000 C   0  0  0  0  0  0  0  0  0  0  0  0
    0.0000    0.0000    0.0000 C   0  0  0  0  0  0  0  0  0  0  0  0
    0.0000    0.0000    0.0000 C   0  0  0  0  0  0  0  0  0  0  0  0
    0.0000    0.0000    0.0000 C   0  0  0  0  0  0  0  0  0  0  0  0
    0.0000    0.0000    0.0000 N   0  0  0  0  0  0  0  0  0  0  0  0
    0.0000    0.0000    0.0000 C   0  0  0  0  0  0  0  0  0  0  0  0
    0.0000    0.0000    0.0000 O   0  0  0  0  0  0  0  0  0  0  0  0
    0.0000    0.0000    0.0000 C   0  0  0  0  0  0  0  0  0  0  0  0
    0.0000    0.0000    0.0000 C   0  0  0  0  0  0  0  0  0  0  0  0
    0.0000    0.0000    0.0000 C   0  0  0  0  0  0  0  0  0  0  0  0
    0.0000    0.0000    0.0000 C   0  0  0  0  0  0  0  0  0  0  0  0
    0.0000    0.0000    0.0000 C   0  0  0  0  0  0  0  0  0  0  0  0
    0.0000    0.0000    0.0000 C   0  0  0  0  0  0  0  0  0  0  0  0
    0.0000    0.0000    0.0000 C   0  0  0  0  0  0  0  0  0  0  0  0
    0.0000    0.0000    0.0000 F   0  0  0  0  0  0  0  0  0  0  0  0
    0.0000    0.0000    0.0000 F   0  0  0  0  0  0  0  0  0  0  0  0
    0.0000    0.0000    0.0000 F   0  0  0  0  0  0  0  0  0  0  0  0
    0.0000    0.0000    0.0000 C   0  0  0  0  0  0  0  0  0  0  0  0
    0.0000    0.0000    0.0000 C   0  0  0  0  0  0  0  0  0  0  0  0
    0.0000    0.0000    0.0000 C   0  0  0  0  0  0  0  0  0  0  0  0
    0.0000    0.0000    0.0000 C   0  0  0  0  0  0  0  0  0  0  0  0
    0.0000    0.0000    0.0000 N   0  0  0  0  0  0  0  0  0  0  0  0
    0.0000    0.0000    0.0000 C   0  0  0  0  0  0  0  0  0  0  0  0
    0.0000    0.0000    0.0000 N   0  0  0  0  0  0  0  0  0  0  0  0
    0.0000    0.0000    0.0000 C   0  0  0  0  0  0  0  0  0  0  0  0
    0.0000    0.0000    0.0000 C   0  0  0  0  0  0  0  0  0  0  0  0
    0.0000    0.0000    0.0000 N   0  0  0  0  0  0  0  0  0  0  0  0
    0.0000    0.0000    0.0000 C   0  0  0  0  0  0  0  0  0  0  0  0
    0.0000    0.0000    0.0000 C   0  0  0  0  0  0  0  0  0  0  0  0
    0.0000    0.0000    0.0000 C   0  0  0  0  0  0  0  0  0  0  0  0
    0.0000    0.0000    0.0000 N   0  0  0  0  0  0  0  0  0  0  0  0
    0.0000    0.0000    0.0000 C   0  0  0  0  0  0  0  0  0  0  0  0
    0.0000    0.0000    0.0000 N   0  0  0  0  0  0  0  0  0  0  0  0
    0.0000    0.0000    0.0000 N   0  0  0  0  0  0  0  0  0  0  0  0
    0.0000    0.0000    0.0000 C   0  0  0  0  0  0  0  0  0  0  0  0
    0.0000    0.0000    0.0000 N   0  0  0  0  0  0  0  0  0  0  0  0
    0.0000    0.0000    0.0000 C   0  0  0  0  0  0  0  0  0  0  0  0
  1  2  1  0
  2  3  2  0
  3  4  1  0
  4  5  2  0
  5  6  1  0
  6  7  1  0
  7  8  2  0
  7  9  1  0
  9 10  2  0
 10 11  1  0
 11 12  2  0
 12 13  1  0
 13 14  2  0
 13 15  1  0
 15 16  1  0
 15 17  1  0
 15 18  1  0
  5 19  1  0
 19 20  2  0
 20 21  1  0
 21 22  2  0
 22 23  1  0
 23 24  1  0
 24 25  2  0
 25 26  1  0
 26 27  2  0
 27 28  1  0
 28 29  1  0
 29 30  2  0
 30 31  1  0
 31 32  2  0
 32 33  1  0
 33 34  2  0
 27 35  1  0
 35 36  2  0
 36 37  1  0
 37 38  2  0
 20  2  1  0
 14  9  1  0
 38 23  1  0
 38 26  1  0
 34 29  1  0
M  END
>  <pIC50>  (207) 
4.4

>  <ChEMBL_ID>  (207) 
CHEMBL565084

>  <document_journal>  (207) 
J. Med. Chem.

>  <bao_endpoint>  (207) 
BAO_0000190

>  <potential_duplicate>  (207) 
False

>  <uo_units>  (207) 
UO_0000065

>  <canonical_smiles>  (207) 
Cc1ccc(NC(=O)c2cccc(c2)C(F)(F)F)cc1\C=C\n3cnc4c(Nc5ccncn5)ncnc34

>  <parent_molecule_chembl_id>  (207) 
CHEMBL565084

>  <assay_type>  (207) 
B

>  <src_id>  (207) 
1

>  <ligand_efficiency>  (207) 
{u'le': u'0.16', u'bei': u'8.52', u'sei': u'3.98', u'lle': u'-0.15'}

>  <standard_flag>  (207) 
True

>  <molecule_chembl_id>  (207) 
CHEMBL565084

>  <target_organism>  (207) 
Homo sapiens

>  <standard_units>  (207) 
nM

>  <record_id>  (207) 
815709

>  <document_chembl_id>  (207) 
CHEMBL1158470

>  <bao_format>  (207) 
BAO_0000357

>  <data_validity_description>  (207) 
None

>  <activity_id>  (207) 
2653247

>  <standard_type>  (207) 
IC50

>  <target_chembl_id>  (207) 
CHEMBL1862

>  <data_validity_comment>  (207) 
None

>  <published_value>  (207) 
40

>  <document_year>  (207) 
2009

>  <target_pref_name>  (207) 
Tyrosine-protein kinase ABL

>  <assay_chembl_id>  (207) 
CHEMBL1031882

>  <standard_relation>  (207) 
=

>  <assay_description>  (207) 
Inhibition of wild type human Abl kinase by TR-FRET assay

>  <published_relation>  (207) 
=

>  <standard_value>  (207) 
40000

>  <qudt_units>  (207) 
http://www.openphacts.org/units/Nanomolar

>  <target_tax_id>  (207) 
9606

>  <bao_label>  (207) 
single protein format

>  <published_units>  (207) 
uM

>  <pchembl_value>  (207) 
4.4

>  <published_type>  (207) 
IC50

>  <activity_comment>  (207) 
None

$$$$

     RDKit          

 42 46  0  0  0  0  0  0  0  0999 V2000
    0.0000    0.0000    0.0000 C   0  0  0  0  0  0  0  0  0  0  0  0
    0.0000    0.0000    0.0000 C   0  0  0  0  0  0  0  0  0  0  0  0
    0.0000    0.0000    0.0000 C   0  0  0  0  0  0  0  0  0  0  0  0
    0.0000    0.0000    0.0000 C   0  0  0  0  0  0  0  0  0  0  0  0
    0.0000    0.0000    0.0000 C   0  0  0  0  0  0  0  0  0  0  0  0
    0.0000    0.0000    0.0000 N   0  0  0  0  0  0  0  0  0  0  0  0
    0.0000    0.0000    0.0000 C   0  0  0  0  0  0  0  0  0  0  0  0
    0.0000    0.0000    0.0000 O   0  0  0  0  0  0  0  0  0  0  0  0
    0.0000    0.0000    0.0000 C   0  0  0  0  0  0  0  0  0  0  0  0
    0.0000    0.0000    0.0000 C   0  0  0  0  0  0  0  0  0  0  0  0
    0.0000    0.0000    0.0000 C   0  0  0  0  0  0  0  0  0  0  0  0
    0.0000    0.0000    0.0000 C   0  0  0  0  0  0  0  0  0  0  0  0
    0.0000    0.0000    0.0000 C   0  0  0  0  0  0  0  0  0  0  0  0
    0.0000    0.0000    0.0000 C   0  0  0  0  0  0  0  0  0  0  0  0
    0.0000    0.0000    0.0000 C   0  0  0  0  0  0  0  0  0  0  0  0
    0.0000    0.0000    0.0000 F   0  0  0  0  0  0  0  0  0  0  0  0
    0.0000    0.0000    0.0000 F   0  0  0  0  0  0  0  0  0  0  0  0
    0.0000    0.0000    0.0000 F   0  0  0  0  0  0  0  0  0  0  0  0
    0.0000    0.0000    0.0000 C   0  0  0  0  0  0  0  0  0  0  0  0
    0.0000    0.0000    0.0000 C   0  0  0  0  0  0  0  0  0  0  0  0
    0.0000    0.0000    0.0000 C   0  0  0  0  0  0  0  0  0  0  0  0
    0.0000    0.0000    0.0000 C   0  0  0  0  0  0  0  0  0  0  0  0
    0.0000    0.0000    0.0000 N   0  0  0  0  0  0  0  0  0  0  0  0
    0.0000    0.0000    0.0000 C   0  0  0  0  0  0  0  0  0  0  0  0
    0.0000    0.0000    0.0000 N   0  0  0  0  0  0  0  0  0  0  0  0
    0.0000    0.0000    0.0000 C   0  0  0  0  0  0  0  0  0  0  0  0
    0.0000    0.0000    0.0000 C   0  0  0  0  0  0  0  0  0  0  0  0
    0.0000    0.0000    0.0000 N   0  0  0  0  0  0  0  0  0  0  0  0
    0.0000    0.0000    0.0000 C   0  0  0  0  0  0  0  0  0  0  0  0
    0.0000    0.0000    0.0000 C   0  0  0  0  0  0  0  0  0  0  0  0
    0.0000    0.0000    0.0000 C   0  0  0  0  0  0  0  0  0  0  0  0
    0.0000    0.0000    0.0000 C   0  0  0  0  0  0  0  0  0  0  0  0
    0.0000    0.0000    0.0000 C   0  0  0  0  0  0  0  0  0  0  0  0
    0.0000    0.0000    0.0000 C   0  0  0  0  0  0  0  0  0  0  0  0
    0.0000    0.0000    0.0000 P   0  0  0  0  0  0  0  0  0  0  0  0
    0.0000    0.0000    0.0000 O   0  0  0  0  0  0  0  0  0  0  0  0
    0.0000    0.0000    0.0000 C   0  0  0  0  0  0  0  0  0  0  0  0
    0.0000    0.0000    0.0000 C   0  0  0  0  0  0  0  0  0  0  0  0
    0.0000    0.0000    0.0000 N   0  0  0  0  0  0  0  0  0  0  0  0
    0.0000    0.0000    0.0000 C   0  0  0  0  0  0  0  0  0  0  0  0
    0.0000    0.0000    0.0000 N   0  0  0  0  0  0  0  0  0  0  0  0
    0.0000    0.0000    0.0000 C   0  0  0  0  0  0  0  0  0  0  0  0
  1  2  1  0
  2  3  2  0
  3  4  1  0
  4  5  2  0
  5  6  1  0
  6  7  1  0
  7  8  2  0
  7  9  1  0
  9 10  2  0
 10 11  1  0
 11 12  2  0
 12 13  1  0
 13 14  2  0
 13 15  1  0
 15 16  1  0
 15 17  1  0
 15 18  1  0
  5 19  1  0
 19 20  2  0
 20 21  1  0
 21 22  2  0
 22 23  1  0
 23 24  1  0
 24 25  2  0
 25 26  1  0
 26 27  2  0
 27 28  1  0
 28 29  1  0
 29 30  2  0
 30 31  1  0
 31 32  2  0
 32 33  1  0
 33 34  2  0
 32 35  1  0
 35 36  2  0
 35 37  1  0
 35 38  1  0
 27 39  1  0
 39 40  2  0
 40 41  1  0
 41 42  2  0
 20  2  1  0
 14  9  1  0
 42 23  1  0
 42 26  1  0
 34 29  1  0
M  END
>  <pIC50>  (208) 
5.24

>  <ChEMBL_ID>  (208) 
CHEMBL554084

>  <document_journal>  (208) 
J. Med. Chem.

>  <bao_endpoint>  (208) 
BAO_0000190

>  <potential_duplicate>  (208) 
False

>  <uo_units>  (208) 
UO_0000065

>  <canonical_smiles>  (208) 
Cc1ccc(NC(=O)c2cccc(c2)C(F)(F)F)cc1\C=C\n3cnc4c(Nc5ccc(cc5)P(=O)(C)C)ncnc34

>  <parent_molecule_chembl_id>  (208) 
CHEMBL554084

>  <assay_type>  (208) 
B

>  <src_id>  (208) 
1

>  <ligand_efficiency>  (208) 
{u'le': u'0.17', u'bei': u'8.88', u'sei': u'4.7', u'lle': u'-0.55'}

>  <standard_flag>  (208) 
True

>  <molecule_chembl_id>  (208) 
CHEMBL554084

>  <target_organism>  (208) 
Homo sapiens

>  <standard_units>  (208) 
nM

>  <record_id>  (208) 
815710

>  <document_chembl_id>  (208) 
CHEMBL1158470

>  <bao_format>  (208) 
BAO_0000357

>  <data_validity_description>  (208) 
None

>  <activity_id>  (208) 
2653248

>  <standard_type>  (208) 
IC50

>  <target_chembl_id>  (208) 
CHEMBL1862

>  <data_validity_comment>  (208) 
None

>  <published_value>  (208) 
5.7

>  <document_year>  (208) 
2009

>  <target_pref_name>  (208) 
Tyrosine-protein kinase ABL

>  <assay_chembl_id>  (208) 
CHEMBL1031882

>  <standard_relation>  (208) 
=

>  <assay_description>  (208) 
Inhibition of wild type human Abl kinase by TR-FRET assay

>  <published_relation>  (208) 
=

>  <standard_value>  (208) 
5700

>  <qudt_units>  (208) 
http://www.openphacts.org/units/Nanomolar

>  <target_tax_id>  (208) 
9606

>  <bao_label>  (208) 
single protein format

>  <published_units>  (208) 
uM

>  <pchembl_value>  (208) 
5.24

>  <published_type>  (208) 
IC50

>  <activity_comment>  (208) 
None

$$$$

     RDKit          

 35 39  0  0  0  0  0  0  0  0999 V2000
    0.0000    0.0000    0.0000 C   0  0  0  0  0  0  0  0  0  0  0  0
    0.0000    0.0000    0.0000 C   0  0  0  0  0  0  0  0  0  0  0  0
    0.0000    0.0000    0.0000 C   0  0  0  0  0  0  0  0  0  0  0  0
    0.0000    0.0000    0.0000 C   0  0  0  0  0  0  0  0  0  0  0  0
    0.0000    0.0000    0.0000 C   0  0  0  0  0  0  0  0  0  0  0  0
    0.0000    0.0000    0.0000 C   0  0  0  0  0  0  0  0  0  0  0  0
    0.0000    0.0000    0.0000 C   0  0  0  0  0  0  0  0  0  0  0  0
    0.0000    0.0000    0.0000 C   0  0  0  0  0  0  0  0  0  0  0  0
    0.0000    0.0000    0.0000 C   0  0  0  0  0  0  0  0  0  0  0  0
    0.0000    0.0000    0.0000 N   0  0  0  0  0  0  0  0  0  0  0  0
    0.0000    0.0000    0.0000 C   0  0  0  0  0  0  0  0  0  0  0  0
    0.0000    0.0000    0.0000 N   0  0  0  0  0  0  0  0  0  0  0  0
    0.0000    0.0000    0.0000 C   0  0  0  0  0  0  0  0  0  0  0  0
    0.0000    0.0000    0.0000 C   0  0  0  0  0  0  0  0  0  0  0  0
    0.0000    0.0000    0.0000 N   0  0  0  0  0  0  0  0  0  0  0  0
    0.0000    0.0000    0.0000 C   0  0  0  0  0  0  0  0  0  0  0  0
    0.0000    0.0000    0.0000 C   0  0  0  0  0  0  0  0  0  0  0  0
    0.0000    0.0000    0.0000 C   0  0  0  0  0  0  0  0  0  0  0  0
    0.0000    0.0000    0.0000 N   0  0  0  0  0  0  0  0  0  0  0  0
    0.0000    0.0000    0.0000 C   0  0  0  0  0  0  0  0  0  0  0  0
    0.0000    0.0000    0.0000 N   0  0  0  0  0  0  0  0  0  0  0  0
    0.0000    0.0000    0.0000 C   0  0  0  0  0  0  0  0  0  0  0  0
    0.0000    0.0000    0.0000 C   0  0  0  0  0  0  0  0  0  0  0  0
    0.0000    0.0000    0.0000 O   0  0  0  0  0  0  0  0  0  0  0  0
    0.0000    0.0000    0.0000 N   0  0  0  0  0  0  0  0  0  0  0  0
    0.0000    0.0000    0.0000 C   0  0  0  0  0  0  0  0  0  0  0  0
    0.0000    0.0000    0.0000 C   0  0  0  0  0  0  0  0  0  0  0  0
    0.0000    0.0000    0.0000 C   0  0  0  0  0  0  0  0  0  0  0  0
    0.0000    0.0000    0.0000 C   0  0  0  0  0  0  0  0  0  0  0  0
    0.0000    0.0000    0.0000 C   0  0  0  0  0  0  0  0  0  0  0  0
    0.0000    0.0000    0.0000 C   0  0  0  0  0  0  0  0  0  0  0  0
    0.0000    0.0000    0.0000 C   0  0  0  0  0  0  0  0  0  0  0  0
    0.0000    0.0000    0.0000 F   0  0  0  0  0  0  0  0  0  0  0  0
    0.0000    0.0000    0.0000 F   0  0  0  0  0  0  0  0  0  0  0  0
    0.0000    0.0000    0.0000 F   0  0  0  0  0  0  0  0  0  0  0  0
  1  2  1  0
  2  3  2  0
  3  4  1  0
  4  5  2  0
  5  6  1  0
  6  7  2  0
  7  8  1  0
  8  9  2  0
  9 10  1  0
 10 11  1  0
 11 12  2  0
 12 13  1  0
 13 14  2  0
 14 15  1  0
 15 16  1  0
 16 17  1  0
 17 18  1  0
 14 19  1  0
 19 20  2  0
 20 21  1  0
 21 22  2  0
  5 23  1  0
 23 24  2  0
 23 25  1  0
 25 26  1  0
 26 27  2  0
 27 28  1  0
 28 29  2  0
 29 30  1  0
 30 31  2  0
 30 32  1  0
 32 33  1  0
 32 34  1  0
 32 35  1  0
  7  2  1  0
 22 10  1  0
 22 13  1  0
 18 16  1  0
 31 26  1  0
M  END
>  <pIC50>  (209) 
4.64

>  <ChEMBL_ID>  (209) 
CHEMBL564726

>  <document_journal>  (209) 
J. Med. Chem.

>  <bao_endpoint>  (209) 
BAO_0000190

>  <potential_duplicate>  (209) 
False

>  <uo_units>  (209) 
UO_0000065

>  <canonical_smiles>  (209) 
Cc1ccc(cc1\C=C\n2cnc3c(NC4CC4)ncnc23)C(=O)Nc5cccc(c5)C(F)(F)F

>  <parent_molecule_chembl_id>  (209) 
CHEMBL564726

>  <assay_type>  (209) 
B

>  <src_id>  (209) 
1

>  <ligand_efficiency>  (209) 
{u'le': u'0.18', u'bei': u'9.69', u'sei': u'5.47', u'lle': u'0.1'}

>  <standard_flag>  (209) 
True

>  <molecule_chembl_id>  (209) 
CHEMBL564726

>  <target_organism>  (209) 
Homo sapiens

>  <standard_units>  (209) 
nM

>  <record_id>  (209) 
815712

>  <document_chembl_id>  (209) 
CHEMBL1158470

>  <bao_format>  (209) 
BAO_0000357

>  <data_validity_description>  (209) 
None

>  <activity_id>  (209) 
2653250

>  <standard_type>  (209) 
IC50

>  <target_chembl_id>  (209) 
CHEMBL1862

>  <data_validity_comment>  (209) 
None

>  <published_value>  (209) 
23

>  <document_year>  (209) 
2009

>  <target_pref_name>  (209) 
Tyrosine-protein kinase ABL

>  <assay_chembl_id>  (209) 
CHEMBL1031882

>  <standard_relation>  (209) 
=

>  <assay_description>  (209) 
Inhibition of wild type human Abl kinase by TR-FRET assay

>  <published_relation>  (209) 
=

>  <standard_value>  (209) 
23000

>  <qudt_units>  (209) 
http://www.openphacts.org/units/Nanomolar

>  <target_tax_id>  (209) 
9606

>  <bao_label>  (209) 
single protein format

>  <published_units>  (209) 
uM

>  <pchembl_value>  (209) 
4.64

>  <published_type>  (209) 
IC50

>  <activity_comment>  (209) 
None

$$$$

     RDKit          

 36 40  0  0  0  0  0  0  0  0999 V2000
    0.0000    0.0000    0.0000 C   0  0  0  0  0  0  0  0  0  0  0  0
    0.0000    0.0000    0.0000 C   0  0  0  0  0  0  0  0  0  0  0  0
    0.0000    0.0000    0.0000 C   0  0  0  0  0  0  0  0  0  0  0  0
    0.0000    0.0000    0.0000 C   0  0  0  0  0  0  0  0  0  0  0  0
    0.0000    0.0000    0.0000 C   0  0  0  0  0  0  0  0  0  0  0  0
    0.0000    0.0000    0.0000 N   0  0  0  0  0  0  0  0  0  0  0  0
    0.0000    0.0000    0.0000 C   0  0  0  0  0  0  0  0  0  0  0  0
    0.0000    0.0000    0.0000 O   0  0  0  0  0  0  0  0  0  0  0  0
    0.0000    0.0000    0.0000 N   0  0  0  0  0  0  0  0  0  0  0  0
    0.0000    0.0000    0.0000 C   0  0  0  0  0  0  0  0  0  0  0  0
    0.0000    0.0000    0.0000 C   0  0  0  0  0  0  0  0  0  0  0  0
    0.0000    0.0000    0.0000 C   0  0  0  0  0  0  0  0  0  0  0  0
    0.0000    0.0000    0.0000 C   0  0  0  0  0  0  0  0  0  0  0  0
    0.0000    0.0000    0.0000 C   0  0  0  0  0  0  0  0  0  0  0  0
    0.0000    0.0000    0.0000 C   0  0  0  0  0  0  0  0  0  0  0  0
    0.0000    0.0000    0.0000 C   0  0  0  0  0  0  0  0  0  0  0  0
    0.0000    0.0000    0.0000 F   0  0  0  0  0  0  0  0  0  0  0  0
    0.0000    0.0000    0.0000 F   0  0  0  0  0  0  0  0  0  0  0  0
    0.0000    0.0000    0.0000 F   0  0  0  0  0  0  0  0  0  0  0  0
    0.0000    0.0000    0.0000 C   0  0  0  0  0  0  0  0  0  0  0  0
    0.0000    0.0000    0.0000 C   0  0  0  0  0  0  0  0  0  0  0  0
    0.0000    0.0000    0.0000 C   0  0  0  0  0  0  0  0  0  0  0  0
    0.0000    0.0000    0.0000 C   0  0  0  0  0  0  0  0  0  0  0  0
    0.0000    0.0000    0.0000 N   0  0  0  0  0  0  0  0  0  0  0  0
    0.0000    0.0000    0.0000 C   0  0  0  0  0  0  0  0  0  0  0  0
    0.0000    0.0000    0.0000 N   0  0  0  0  0  0  0  0  0  0  0  0
    0.0000    0.0000    0.0000 C   0  0  0  0  0  0  0  0  0  0  0  0
    0.0000    0.0000    0.0000 C   0  0  0  0  0  0  0  0  0  0  0  0
    0.0000    0.0000    0.0000 N   0  0  0  0  0  0  0  0  0  0  0  0
    0.0000    0.0000    0.0000 C   0  0  0  0  0  0  0  0  0  0  0  0
    0.0000    0.0000    0.0000 C   0  0  0  0  0  0  0  0  0  0  0  0
    0.0000    0.0000    0.0000 C   0  0  0  0  0  0  0  0  0  0  0  0
    0.0000    0.0000    0.0000 N   0  0  0  0  0  0  0  0  0  0  0  0
    0.0000    0.0000    0.0000 C   0  0  0  0  0  0  0  0  0  0  0  0
    0.0000    0.0000    0.0000 N   0  0  0  0  0  0  0  0  0  0  0  0
    0.0000    0.0000    0.0000 C   0  0  0  0  0  0  0  0  0  0  0  0
  1  2  1  0
  2  3  2  0
  3  4  1  0
  4  5  2  0
  5  6  1  0
  6  7  1  0
  7  8  2  0
  7  9  1  0
  9 10  1  0
 10 11  2  0
 11 12  1  0
 12 13  2  0
 13 14  1  0
 14 15  2  0
 14 16  1  0
 16 17  1  0
 16 18  1  0
 16 19  1  0
  5 20  1  0
 20 21  2  0
 21 22  1  0
 22 23  2  0
 23 24  1  0
 24 25  1  0
 25 26  2  0
 26 27  1  0
 27 28  2  0
 28 29  1  0
 29 30  1  0
 30 31  1  0
 31 32  1  0
 28 33  1  0
 33 34  2  0
 34 35  1  0
 35 36  2  0
 21  2  1  0
 15 10  1  0
 36 24  1  0
 36 27  1  0
 32 30  1  0
M  END
>  <pIC50>  (210) 
4.21

>  <ChEMBL_ID>  (210) 
CHEMBL559069

>  <document_journal>  (210) 
J. Med. Chem.

>  <bao_endpoint>  (210) 
BAO_0000190

>  <potential_duplicate>  (210) 
False

>  <uo_units>  (210) 
UO_0000065

>  <canonical_smiles>  (210) 
Cc1ccc(NC(=O)Nc2cccc(c2)C(F)(F)F)cc1\C=C\n3cnc4c(NC5CC5)ncnc34

>  <parent_molecule_chembl_id>  (210) 
CHEMBL559069

>  <assay_type>  (210) 
B

>  <src_id>  (210) 
1

>  <ligand_efficiency>  (210) 
{u'le': u'0.16', u'bei': u'8.53', u'sei': u'4.35', u'lle': u'-0.24'}

>  <standard_flag>  (210) 
True

>  <molecule_chembl_id>  (210) 
CHEMBL559069

>  <target_organism>  (210) 
Homo sapiens

>  <standard_units>  (210) 
nM

>  <record_id>  (210) 
815713

>  <document_chembl_id>  (210) 
CHEMBL1158470

>  <bao_format>  (210) 
BAO_0000357

>  <data_validity_description>  (210) 
None

>  <activity_id>  (210) 
2653251

>  <standard_type>  (210) 
IC50

>  <target_chembl_id>  (210) 
CHEMBL1862

>  <data_validity_comment>  (210) 
None

>  <published_value>  (210) 
62

>  <document_year>  (210) 
2009

>  <target_pref_name>  (210) 
Tyrosine-protein kinase ABL

>  <assay_chembl_id>  (210) 
CHEMBL1031882

>  <standard_relation>  (210) 
=

>  <assay_description>  (210) 
Inhibition of wild type human Abl kinase by TR-FRET assay

>  <published_relation>  (210) 
=

>  <standard_value>  (210) 
62000

>  <qudt_units>  (210) 
http://www.openphacts.org/units/Nanomolar

>  <target_tax_id>  (210) 
9606

>  <bao_label>  (210) 
single protein format

>  <published_units>  (210) 
uM

>  <pchembl_value>  (210) 
4.21

>  <published_type>  (210) 
IC50

>  <activity_comment>  (210) 
None

$$$$

     RDKit          

 36 40  0  0  0  0  0  0  0  0999 V2000
    0.0000    0.0000    0.0000 C   0  0  0  0  0  0  0  0  0  0  0  0
    0.0000    0.0000    0.0000 C   0  0  0  0  0  0  0  0  0  0  0  0
    0.0000    0.0000    0.0000 C   0  0  0  0  0  0  0  0  0  0  0  0
    0.0000    0.0000    0.0000 C   0  0  0  0  0  0  0  0  0  0  0  0
    0.0000    0.0000    0.0000 C   0  0  0  0  0  0  0  0  0  0  0  0
    0.0000    0.0000    0.0000 C   0  0  0  0  0  0  0  0  0  0  0  0
    0.0000    0.0000    0.0000 C   0  0  0  0  0  0  0  0  0  0  0  0
    0.0000    0.0000    0.0000 C   0  0  0  0  0  0  0  0  0  0  0  0
    0.0000    0.0000    0.0000 C   0  0  0  0  0  0  0  0  0  0  0  0
    0.0000    0.0000    0.0000 N   0  0  0  0  0  0  0  0  0  0  0  0
    0.0000    0.0000    0.0000 C   0  0  0  0  0  0  0  0  0  0  0  0
    0.0000    0.0000    0.0000 N   0  0  0  0  0  0  0  0  0  0  0  0
    0.0000    0.0000    0.0000 C   0  0  0  0  0  0  0  0  0  0  0  0
    0.0000    0.0000    0.0000 C   0  0  0  0  0  0  0  0  0  0  0  0
    0.0000    0.0000    0.0000 N   0  0  0  0  0  0  0  0  0  0  0  0
    0.0000    0.0000    0.0000 C   0  0  0  0  0  0  0  0  0  0  0  0
    0.0000    0.0000    0.0000 C   0  0  0  0  0  0  0  0  0  0  0  0
    0.0000    0.0000    0.0000 C   0  0  0  0  0  0  0  0  0  0  0  0
    0.0000    0.0000    0.0000 N   0  0  0  0  0  0  0  0  0  0  0  0
    0.0000    0.0000    0.0000 C   0  0  0  0  0  0  0  0  0  0  0  0
    0.0000    0.0000    0.0000 N   0  0  0  0  0  0  0  0  0  0  0  0
    0.0000    0.0000    0.0000 C   0  0  0  0  0  0  0  0  0  0  0  0
    0.0000    0.0000    0.0000 C   0  0  0  0  0  0  0  0  0  0  0  0
    0.0000    0.0000    0.0000 O   0  0  0  0  0  0  0  0  0  0  0  0
    0.0000    0.0000    0.0000 N   0  0  0  0  0  0  0  0  0  0  0  0
    0.0000    0.0000    0.0000 C   0  0  0  0  0  0  0  0  0  0  0  0
    0.0000    0.0000    0.0000 C   0  0  0  0  0  0  0  0  0  0  0  0
    0.0000    0.0000    0.0000 C   0  0  0  0  0  0  0  0  0  0  0  0
    0.0000    0.0000    0.0000 C   0  0  0  0  0  0  0  0  0  0  0  0
    0.0000    0.0000    0.0000 Cl  0  0  0  0  0  0  0  0  0  0  0  0
    0.0000    0.0000    0.0000 C   0  0  0  0  0  0  0  0  0  0  0  0
    0.0000    0.0000    0.0000 C   0  0  0  0  0  0  0  0  0  0  0  0
    0.0000    0.0000    0.0000 C   0  0  0  0  0  0  0  0  0  0  0  0
    0.0000    0.0000    0.0000 F   0  0  0  0  0  0  0  0  0  0  0  0
    0.0000    0.0000    0.0000 F   0  0  0  0  0  0  0  0  0  0  0  0
    0.0000    0.0000    0.0000 F   0  0  0  0  0  0  0  0  0  0  0  0
  1  2  1  0
  2  3  2  0
  3  4  1  0
  4  5  2  0
  5  6  1  0
  6  7  2  0
  7  8  1  0
  8  9  2  0
  9 10  1  0
 10 11  1  0
 11 12  2  0
 12 13  1  0
 13 14  2  0
 14 15  1  0
 15 16  1  0
 16 17  1  0
 17 18  1  0
 14 19  1  0
 19 20  2  0
 20 21  1  0
 21 22  2  0
  5 23  1  0
 23 24  2  0
 23 25  1  0
 25 26  1  0
 26 27  2  0
 27 28  1  0
 28 29  2  0
 29 30  1  0
 29 31  1  0
 31 32  2  0
 31 33  1  0
 33 34  1  0
 33 35  1  0
 33 36  1  0
  7  2  1  0
 22 10  1  0
 22 13  1  0
 18 16  1  0
 32 26  1  0
M  END
>  <pIC50>  (211) 
4.43

>  <ChEMBL_ID>  (211) 
CHEMBL564235

>  <document_journal>  (211) 
J. Med. Chem.

>  <bao_endpoint>  (211) 
BAO_0000190

>  <potential_duplicate>  (211) 
False

>  <uo_units>  (211) 
UO_0000065

>  <canonical_smiles>  (211) 
Cc1ccc(cc1\C=C\n2cnc3c(NC4CC4)ncnc23)C(=O)Nc5ccc(Cl)c(c5)C(F)(F)F

>  <parent_molecule_chembl_id>  (211) 
CHEMBL564235

>  <assay_type>  (211) 
B

>  <src_id>  (211) 
1

>  <ligand_efficiency>  (211) 
{u'le': u'0.17', u'bei': u'8.64', u'sei': u'5.23', u'lle': u'-0.78'}

>  <standard_flag>  (211) 
True

>  <molecule_chembl_id>  (211) 
CHEMBL564235

>  <target_organism>  (211) 
Homo sapiens

>  <standard_units>  (211) 
nM

>  <record_id>  (211) 
815792

>  <document_chembl_id>  (211) 
CHEMBL1158470

>  <bao_format>  (211) 
BAO_0000357

>  <data_validity_description>  (211) 
None

>  <activity_id>  (211) 
2653253

>  <standard_type>  (211) 
IC50

>  <target_chembl_id>  (211) 
CHEMBL1862

>  <data_validity_comment>  (211) 
None

>  <published_value>  (211) 
37

>  <document_year>  (211) 
2009

>  <target_pref_name>  (211) 
Tyrosine-protein kinase ABL

>  <assay_chembl_id>  (211) 
CHEMBL1031882

>  <standard_relation>  (211) 
=

>  <assay_description>  (211) 
Inhibition of wild type human Abl kinase by TR-FRET assay

>  <published_relation>  (211) 
=

>  <standard_value>  (211) 
37000

>  <qudt_units>  (211) 
http://www.openphacts.org/units/Nanomolar

>  <target_tax_id>  (211) 
9606

>  <bao_label>  (211) 
single protein format

>  <published_units>  (211) 
uM

>  <pchembl_value>  (211) 
4.43

>  <published_type>  (211) 
IC50

>  <activity_comment>  (211) 
None

$$$$

     RDKit          

 35 39  0  0  0  0  0  0  0  0999 V2000
    0.0000    0.0000    0.0000 C   0  0  0  0  0  0  0  0  0  0  0  0
    0.0000    0.0000    0.0000 C   0  0  0  0  0  0  0  0  0  0  0  0
    0.0000    0.0000    0.0000 C   0  0  0  0  0  0  0  0  0  0  0  0
    0.0000    0.0000    0.0000 C   0  0  0  0  0  0  0  0  0  0  0  0
    0.0000    0.0000    0.0000 C   0  0  0  0  0  0  0  0  0  0  0  0
    0.0000    0.0000    0.0000 C   0  0  0  0  0  0  0  0  0  0  0  0
    0.0000    0.0000    0.0000 C   0  0  0  0  0  0  0  0  0  0  0  0
    0.0000    0.0000    0.0000 C   0  0  0  0  0  0  0  0  0  0  0  0
    0.0000    0.0000    0.0000 C   0  0  0  0  0  0  0  0  0  0  0  0
    0.0000    0.0000    0.0000 N   0  0  0  0  0  0  0  0  0  0  0  0
    0.0000    0.0000    0.0000 C   0  0  0  0  0  0  0  0  0  0  0  0
    0.0000    0.0000    0.0000 N   0  0  0  0  0  0  0  0  0  0  0  0
    0.0000    0.0000    0.0000 C   0  0  0  0  0  0  0  0  0  0  0  0
    0.0000    0.0000    0.0000 C   0  0  0  0  0  0  0  0  0  0  0  0
    0.0000    0.0000    0.0000 N   0  0  0  0  0  0  0  0  0  0  0  0
    0.0000    0.0000    0.0000 C   0  0  0  0  0  0  0  0  0  0  0  0
    0.0000    0.0000    0.0000 C   0  0  0  0  0  0  0  0  0  0  0  0
    0.0000    0.0000    0.0000 C   0  0  0  0  0  0  0  0  0  0  0  0
    0.0000    0.0000    0.0000 N   0  0  0  0  0  0  0  0  0  0  0  0
    0.0000    0.0000    0.0000 C   0  0  0  0  0  0  0  0  0  0  0  0
    0.0000    0.0000    0.0000 N   0  0  0  0  0  0  0  0  0  0  0  0
    0.0000    0.0000    0.0000 C   0  0  0  0  0  0  0  0  0  0  0  0
    0.0000    0.0000    0.0000 C   0  0  0  0  0  0  0  0  0  0  0  0
    0.0000    0.0000    0.0000 O   0  0  0  0  0  0  0  0  0  0  0  0
    0.0000    0.0000    0.0000 N   0  0  0  0  0  0  0  0  0  0  0  0
    0.0000    0.0000    0.0000 C   0  0  0  0  0  0  0  0  0  0  0  0
    0.0000    0.0000    0.0000 C   0  0  0  0  0  0  0  0  0  0  0  0
    0.0000    0.0000    0.0000 C   0  0  0  0  0  0  0  0  0  0  0  0
    0.0000    0.0000    0.0000 C   0  0  0  0  0  0  0  0  0  0  0  0
    0.0000    0.0000    0.0000 C   0  0  0  0  0  0  0  0  0  0  0  0
    0.0000    0.0000    0.0000 C   0  0  0  0  0  0  0  0  0  0  0  0
    0.0000    0.0000    0.0000 C   0  0  0  0  0  0  0  0  0  0  0  0
    0.0000    0.0000    0.0000 C   0  0  0  0  0  0  0  0  0  0  0  0
    0.0000    0.0000    0.0000 C   0  0  0  0  0  0  0  0  0  0  0  0
    0.0000    0.0000    0.0000 C   0  0  0  0  0  0  0  0  0  0  0  0
  1  2  1  0
  2  3  2  0
  3  4  1  0
  4  5  2  0
  5  6  1  0
  6  7  2  0
  7  8  1  0
  8  9  2  0
  9 10  1  0
 10 11  1  0
 11 12  2  0
 12 13  1  0
 13 14  2  0
 14 15  1  0
 15 16  1  0
 16 17  1  0
 17 18  1  0
 14 19  1  0
 19 20  2  0
 20 21  1  0
 21 22  2  0
  5 23  1  0
 23 24  2  0
 23 25  1  0
 25 26  1  0
 26 27  2  0
 27 28  1  0
 28 29  2  0
 29 30  1  0
 30 31  2  0
 30 32  1  0
 32 33  1  0
 32 34  1  0
 32 35  1  0
  7  2  1  0
 22 10  1  0
 22 13  1  0
 18 16  1  0
 31 26  1  0
M  END
>  <pIC50>  (212) 
4.23

>  <ChEMBL_ID>  (212) 
CHEMBL559628

>  <document_journal>  (212) 
J. Med. Chem.

>  <bao_endpoint>  (212) 
BAO_0000190

>  <potential_duplicate>  (212) 
False

>  <uo_units>  (212) 
UO_0000065

>  <canonical_smiles>  (212) 
Cc1ccc(cc1\C=C\n2cnc3c(NC4CC4)ncnc23)C(=O)Nc5cccc(c5)C(C)(C)C

>  <parent_molecule_chembl_id>  (212) 
CHEMBL559628

>  <assay_type>  (212) 
B

>  <src_id>  (212) 
1

>  <ligand_efficiency>  (212) 
{u'le': u'0.17', u'bei': u'9.06', u'sei': u'4.99', u'lle': u'-0.77'}

>  <standard_flag>  (212) 
True

>  <molecule_chembl_id>  (212) 
CHEMBL559628

>  <target_organism>  (212) 
Homo sapiens

>  <standard_units>  (212) 
nM

>  <record_id>  (212) 
815793

>  <document_chembl_id>  (212) 
CHEMBL1158470

>  <bao_format>  (212) 
BAO_0000357

>  <data_validity_description>  (212) 
None

>  <activity_id>  (212) 
2653254

>  <standard_type>  (212) 
IC50

>  <target_chembl_id>  (212) 
CHEMBL1862

>  <data_validity_comment>  (212) 
None

>  <published_value>  (212) 
59

>  <document_year>  (212) 
2009

>  <target_pref_name>  (212) 
Tyrosine-protein kinase ABL

>  <assay_chembl_id>  (212) 
CHEMBL1031882

>  <standard_relation>  (212) 
=

>  <assay_description>  (212) 
Inhibition of wild type human Abl kinase by TR-FRET assay

>  <published_relation>  (212) 
=

>  <standard_value>  (212) 
59000

>  <qudt_units>  (212) 
http://www.openphacts.org/units/Nanomolar

>  <target_tax_id>  (212) 
9606

>  <bao_label>  (212) 
single protein format

>  <published_units>  (212) 
uM

>  <pchembl_value>  (212) 
4.23

>  <published_type>  (212) 
IC50

>  <activity_comment>  (212) 
None

$$$$

     RDKit          

 34 38  0  0  0  0  0  0  0  0999 V2000
    0.0000    0.0000    0.0000 C   0  0  0  0  0  0  0  0  0  0  0  0
    0.0000    0.0000    0.0000 C   0  0  0  0  0  0  0  0  0  0  0  0
    0.0000    0.0000    0.0000 C   0  0  0  0  0  0  0  0  0  0  0  0
    0.0000    0.0000    0.0000 C   0  0  0  0  0  0  0  0  0  0  0  0
    0.0000    0.0000    0.0000 C   0  0  0  0  0  0  0  0  0  0  0  0
    0.0000    0.0000    0.0000 C   0  0  0  0  0  0  0  0  0  0  0  0
    0.0000    0.0000    0.0000 C   0  0  0  0  0  0  0  0  0  0  0  0
    0.0000    0.0000    0.0000 C   0  0  0  0  0  0  0  0  0  0  0  0
    0.0000    0.0000    0.0000 N   0  0  0  0  0  0  0  0  0  0  0  0
    0.0000    0.0000    0.0000 C   0  0  0  0  0  0  0  0  0  0  0  0
    0.0000    0.0000    0.0000 O   0  0  0  0  0  0  0  0  0  0  0  0
    0.0000    0.0000    0.0000 C   0  0  0  0  0  0  0  0  0  0  0  0
    0.0000    0.0000    0.0000 C   0  0  0  0  0  0  0  0  0  0  0  0
    0.0000    0.0000    0.0000 C   0  0  0  0  0  0  0  0  0  0  0  0
    0.0000    0.0000    0.0000 C   0  0  0  0  0  0  0  0  0  0  0  0
    0.0000    0.0000    0.0000 C   0  0  0  0  0  0  0  0  0  0  0  0
    0.0000    0.0000    0.0000 C   0  0  0  0  0  0  0  0  0  0  0  0
    0.0000    0.0000    0.0000 C   0  0  0  0  0  0  0  0  0  0  0  0
    0.0000    0.0000    0.0000 C   0  0  0  0  0  0  0  0  0  0  0  0
    0.0000    0.0000    0.0000 N   0  0  0  0  0  0  0  0  0  0  0  0
    0.0000    0.0000    0.0000 C   0  0  0  0  0  0  0  0  0  0  0  0
    0.0000    0.0000    0.0000 N   0  0  0  0  0  0  0  0  0  0  0  0
    0.0000    0.0000    0.0000 C   0  0  0  0  0  0  0  0  0  0  0  0
    0.0000    0.0000    0.0000 C   0  0  0  0  0  0  0  0  0  0  0  0
    0.0000    0.0000    0.0000 N   0  0  0  0  0  0  0  0  0  0  0  0
    0.0000    0.0000    0.0000 C   0  0  0  0  0  0  0  0  0  0  0  0
    0.0000    0.0000    0.0000 C   0  0  0  0  0  0  0  0  0  0  0  0
    0.0000    0.0000    0.0000 C   0  0  0  0  0  0  0  0  0  0  0  0
    0.0000    0.0000    0.0000 N   0  0  0  0  0  0  0  0  0  0  0  0
    0.0000    0.0000    0.0000 C   0  0  0  0  0  0  0  0  0  0  0  0
    0.0000    0.0000    0.0000 N   0  0  0  0  0  0  0  0  0  0  0  0
    0.0000    0.0000    0.0000 C   0  0  0  0  0  0  0  0  0  0  0  0
    0.0000    0.0000    0.0000 C   0  0  0  0  0  0  0  0  0  0  0  0
    0.0000    0.0000    0.0000 C   0  0  0  0  0  0  0  0  0  0  0  0
  1  2  1  0
  2  3  1  0
  2  4  1  0
  4  5  2  0
  5  6  1  0
  6  7  2  0
  7  8  1  0
  8  9  1  0
  9 10  1  0
 10 11  2  0
 10 12  1  0
 12 13  2  0
 13 14  1  0
 14 15  2  0
 15 16  1  0
 15 17  1  0
 17 18  1  0
 18 19  2  0
 19 20  1  0
 20 21  1  0
 21 22  2  0
 22 23  1  0
 23 24  2  0
 24 25  1  0
 25 26  1  0
 26 27  1  0
 27 28  1  0
 24 29  1  0
 29 30  2  0
 30 31  1  0
 31 32  2  0
 17 33  2  0
  8 34  2  0
 34  4  1  0
 33 12  1  0
 32 20  1  0
 32 23  1  0
 28 26  1  0
M  END
>  <pIC50>  (213) 
4.22

>  <ChEMBL_ID>  (213) 
CHEMBL559702

>  <document_journal>  (213) 
J. Med. Chem.

>  <bao_endpoint>  (213) 
BAO_0000190

>  <potential_duplicate>  (213) 
False

>  <uo_units>  (213) 
UO_0000065

>  <canonical_smiles>  (213) 
CC(C)c1cccc(NC(=O)c2ccc(C)c(\C=C\n3cnc4c(NC5CC5)ncnc34)c2)c1

>  <parent_molecule_chembl_id>  (213) 
CHEMBL559702

>  <assay_type>  (213) 
B

>  <src_id>  (213) 
1

>  <ligand_efficiency>  (213) 
{u'le': u'0.17', u'bei': u'9.33', u'sei': u'4.98', u'lle': u'-0.57'}

>  <standard_flag>  (213) 
True

>  <molecule_chembl_id>  (213) 
CHEMBL559702

>  <target_organism>  (213) 
Homo sapiens

>  <standard_units>  (213) 
nM

>  <record_id>  (213) 
815794

>  <document_chembl_id>  (213) 
CHEMBL1158470

>  <bao_format>  (213) 
BAO_0000357

>  <data_validity_description>  (213) 
None

>  <activity_id>  (213) 
2653255

>  <standard_type>  (213) 
IC50

>  <target_chembl_id>  (213) 
CHEMBL1862

>  <data_validity_comment>  (213) 
None

>  <published_value>  (213) 
60

>  <document_year>  (213) 
2009

>  <target_pref_name>  (213) 
Tyrosine-protein kinase ABL

>  <assay_chembl_id>  (213) 
CHEMBL1031882

>  <standard_relation>  (213) 
=

>  <assay_description>  (213) 
Inhibition of wild type human Abl kinase by TR-FRET assay

>  <published_relation>  (213) 
=

>  <standard_value>  (213) 
60000

>  <qudt_units>  (213) 
http://www.openphacts.org/units/Nanomolar

>  <target_tax_id>  (213) 
9606

>  <bao_label>  (213) 
single protein format

>  <published_units>  (213) 
uM

>  <pchembl_value>  (213) 
4.22

>  <published_type>  (213) 
IC50

>  <activity_comment>  (213) 
None

$$$$

     RDKit          

 34 38  0  0  0  0  0  0  0  0999 V2000
    0.0000    0.0000    0.0000 C   0  0  0  0  0  0  0  0  0  0  0  0
    0.0000    0.0000    0.0000 C   0  0  0  0  0  0  0  0  0  0  0  0
    0.0000    0.0000    0.0000 C   0  0  0  0  0  0  0  0  0  0  0  0
    0.0000    0.0000    0.0000 C   0  0  0  0  0  0  0  0  0  0  0  0
    0.0000    0.0000    0.0000 C   0  0  0  0  0  0  0  0  0  0  0  0
    0.0000    0.0000    0.0000 C   0  0  0  0  0  0  0  0  0  0  0  0
    0.0000    0.0000    0.0000 C   0  0  0  0  0  0  0  0  0  0  0  0
    0.0000    0.0000    0.0000 C   0  0  0  0  0  0  0  0  0  0  0  0
    0.0000    0.0000    0.0000 C   0  0  0  0  0  0  0  0  0  0  0  0
    0.0000    0.0000    0.0000 N   0  0  0  0  0  0  0  0  0  0  0  0
    0.0000    0.0000    0.0000 C   0  0  0  0  0  0  0  0  0  0  0  0
    0.0000    0.0000    0.0000 N   0  0  0  0  0  0  0  0  0  0  0  0
    0.0000    0.0000    0.0000 C   0  0  0  0  0  0  0  0  0  0  0  0
    0.0000    0.0000    0.0000 C   0  0  0  0  0  0  0  0  0  0  0  0
    0.0000    0.0000    0.0000 N   0  0  0  0  0  0  0  0  0  0  0  0
    0.0000    0.0000    0.0000 C   0  0  0  0  0  0  0  0  0  0  0  0
    0.0000    0.0000    0.0000 C   0  0  0  0  0  0  0  0  0  0  0  0
    0.0000    0.0000    0.0000 C   0  0  0  0  0  0  0  0  0  0  0  0
    0.0000    0.0000    0.0000 N   0  0  0  0  0  0  0  0  0  0  0  0
    0.0000    0.0000    0.0000 C   0  0  0  0  0  0  0  0  0  0  0  0
    0.0000    0.0000    0.0000 N   0  0  0  0  0  0  0  0  0  0  0  0
    0.0000    0.0000    0.0000 C   0  0  0  0  0  0  0  0  0  0  0  0
    0.0000    0.0000    0.0000 C   0  0  0  0  0  0  0  0  0  0  0  0
    0.0000    0.0000    0.0000 O   0  0  0  0  0  0  0  0  0  0  0  0
    0.0000    0.0000    0.0000 N   0  0  0  0  0  0  0  0  0  0  0  0
    0.0000    0.0000    0.0000 C   0  0  0  0  0  0  0  0  0  0  0  0
    0.0000    0.0000    0.0000 C   0  0  0  0  0  0  0  0  0  0  0  0
    0.0000    0.0000    0.0000 C   0  0  0  0  0  0  0  0  0  0  0  0
    0.0000    0.0000    0.0000 O   0  0  0  0  0  0  0  0  0  0  0  0
    0.0000    0.0000    0.0000 N   0  0  0  0  0  0  0  0  0  0  0  0
    0.0000    0.0000    0.0000 C   0  0  0  0  0  0  0  0  0  0  0  0
    0.0000    0.0000    0.0000 C   0  0  0  0  0  0  0  0  0  0  0  0
    0.0000    0.0000    0.0000 C   0  0  0  0  0  0  0  0  0  0  0  0
    0.0000    0.0000    0.0000 C   0  0  0  0  0  0  0  0  0  0  0  0
  1  2  1  0
  2  3  2  0
  3  4  1  0
  4  5  2  0
  5  6  1  0
  6  7  2  0
  7  8  1  0
  8  9  2  0
  9 10  1  0
 10 11  1  0
 11 12  2  0
 12 13  1  0
 13 14  2  0
 14 15  1  0
 15 16  1  0
 16 17  1  0
 17 18  1  0
 14 19  1  0
 19 20  2  0
 20 21  1  0
 21 22  2  0
  5 23  1  0
 23 24  2  0
 23 25  1  0
 25 26  1  0
 26 27  1  0
 27 28  2  0
 28 29  1  0
 29 30  1  0
 28 31  1  0
 31 32  1  0
 31 33  1  0
 31 34  1  0
  7  2  1  0
 22 10  1  0
 22 13  1  0
 18 16  1  0
 30 26  2  0
M  END
>  <pIC50>  (214) 
4.64

>  <ChEMBL_ID>  (214) 
CHEMBL556669

>  <document_journal>  (214) 
J. Med. Chem.

>  <bao_endpoint>  (214) 
BAO_0000190

>  <potential_duplicate>  (214) 
False

>  <uo_units>  (214) 
UO_0000065

>  <canonical_smiles>  (214) 
Cc1ccc(cc1\C=C\n2cnc3c(NC4CC4)ncnc23)C(=O)Nc5cc(on5)C(C)(C)C

>  <parent_molecule_chembl_id>  (214) 
CHEMBL556669

>  <assay_type>  (214) 
B

>  <src_id>  (214) 
1

>  <ligand_efficiency>  (214) 
{u'le': u'0.19', u'bei': u'10.14', u'sei': u'4.19', u'lle': u'0.36'}

>  <standard_flag>  (214) 
True

>  <molecule_chembl_id>  (214) 
CHEMBL556669

>  <target_organism>  (214) 
Homo sapiens

>  <standard_units>  (214) 
nM

>  <record_id>  (214) 
815869

>  <document_chembl_id>  (214) 
CHEMBL1158470

>  <bao_format>  (214) 
BAO_0000357

>  <data_validity_description>  (214) 
None

>  <activity_id>  (214) 
2653257

>  <standard_type>  (214) 
IC50

>  <target_chembl_id>  (214) 
CHEMBL1862

>  <data_validity_comment>  (214) 
None

>  <published_value>  (214) 
23

>  <document_year>  (214) 
2009

>  <target_pref_name>  (214) 
Tyrosine-protein kinase ABL

>  <assay_chembl_id>  (214) 
CHEMBL1031882

>  <standard_relation>  (214) 
=

>  <assay_description>  (214) 
Inhibition of wild type human Abl kinase by TR-FRET assay

>  <published_relation>  (214) 
=

>  <standard_value>  (214) 
23000

>  <qudt_units>  (214) 
http://www.openphacts.org/units/Nanomolar

>  <target_tax_id>  (214) 
9606

>  <bao_label>  (214) 
single protein format

>  <published_units>  (214) 
uM

>  <pchembl_value>  (214) 
4.64

>  <published_type>  (214) 
IC50

>  <activity_comment>  (214) 
None

$$$$

     RDKit          

 35 39  0  0  0  0  0  0  0  0999 V2000
    0.0000    0.0000    0.0000 C   0  0  0  0  0  0  0  0  0  0  0  0
    0.0000    0.0000    0.0000 C   0  0  0  0  0  0  0  0  0  0  0  0
    0.0000    0.0000    0.0000 C   0  0  0  0  0  0  0  0  0  0  0  0
    0.0000    0.0000    0.0000 C   0  0  0  0  0  0  0  0  0  0  0  0
    0.0000    0.0000    0.0000 C   0  0  0  0  0  0  0  0  0  0  0  0
    0.0000    0.0000    0.0000 C   0  0  0  0  0  0  0  0  0  0  0  0
    0.0000    0.0000    0.0000 C   0  0  0  0  0  0  0  0  0  0  0  0
    0.0000    0.0000    0.0000 C   0  0  0  0  0  0  0  0  0  0  0  0
    0.0000    0.0000    0.0000 C   0  0  0  0  0  0  0  0  0  0  0  0
    0.0000    0.0000    0.0000 N   0  0  0  0  0  0  0  0  0  0  0  0
    0.0000    0.0000    0.0000 C   0  0  0  0  0  0  0  0  0  0  0  0
    0.0000    0.0000    0.0000 N   0  0  0  0  0  0  0  0  0  0  0  0
    0.0000    0.0000    0.0000 C   0  0  0  0  0  0  0  0  0  0  0  0
    0.0000    0.0000    0.0000 C   0  0  0  0  0  0  0  0  0  0  0  0
    0.0000    0.0000    0.0000 N   0  0  0  0  0  0  0  0  0  0  0  0
    0.0000    0.0000    0.0000 C   0  0  0  0  0  0  0  0  0  0  0  0
    0.0000    0.0000    0.0000 C   0  0  0  0  0  0  0  0  0  0  0  0
    0.0000    0.0000    0.0000 C   0  0  0  0  0  0  0  0  0  0  0  0
    0.0000    0.0000    0.0000 N   0  0  0  0  0  0  0  0  0  0  0  0
    0.0000    0.0000    0.0000 C   0  0  0  0  0  0  0  0  0  0  0  0
    0.0000    0.0000    0.0000 N   0  0  0  0  0  0  0  0  0  0  0  0
    0.0000    0.0000    0.0000 C   0  0  0  0  0  0  0  0  0  0  0  0
    0.0000    0.0000    0.0000 C   0  0  0  0  0  0  0  0  0  0  0  0
    0.0000    0.0000    0.0000 O   0  0  0  0  0  0  0  0  0  0  0  0
    0.0000    0.0000    0.0000 N   0  0  0  0  0  0  0  0  0  0  0  0
    0.0000    0.0000    0.0000 C   0  0  0  0  0  0  0  0  0  0  0  0
    0.0000    0.0000    0.0000 C   0  0  0  0  0  0  0  0  0  0  0  0
    0.0000    0.0000    0.0000 C   0  0  0  0  0  0  0  0  0  0  0  0
    0.0000    0.0000    0.0000 C   0  0  0  0  0  0  0  0  0  0  0  0
    0.0000    0.0000    0.0000 C   0  0  0  0  0  0  0  0  0  0  0  0
    0.0000    0.0000    0.0000 N   0  0  0  0  0  0  0  0  0  0  0  0
    0.0000    0.0000    0.0000 C   0  0  0  0  0  0  0  0  0  0  0  0
    0.0000    0.0000    0.0000 F   0  0  0  0  0  0  0  0  0  0  0  0
    0.0000    0.0000    0.0000 F   0  0  0  0  0  0  0  0  0  0  0  0
    0.0000    0.0000    0.0000 F   0  0  0  0  0  0  0  0  0  0  0  0
  1  2  1  0
  2  3  2  0
  3  4  1  0
  4  5  2  0
  5  6  1  0
  6  7  2  0
  7  8  1  0
  8  9  2  0
  9 10  1  0
 10 11  1  0
 11 12  2  0
 12 13  1  0
 13 14  2  0
 14 15  1  0
 15 16  1  0
 16 17  1  0
 17 18  1  0
 14 19  1  0
 19 20  2  0
 20 21  1  0
 21 22  2  0
  5 23  1  0
 23 24  2  0
 23 25  1  0
 25 26  1  0
 26 27  2  0
 27 28  1  0
 28 29  2  0
 29 30  1  0
 30 31  2  0
 28 32  1  0
 32 33  1  0
 32 34  1  0
 32 35  1  0
  7  2  1  0
 22 10  1  0
 22 13  1  0
 18 16  1  0
 31 26  1  0
M  END
>  <pIC50>  (215) 
4.7

>  <ChEMBL_ID>  (215) 
CHEMBL556874

>  <document_journal>  (215) 
J. Med. Chem.

>  <bao_endpoint>  (215) 
BAO_0000190

>  <potential_duplicate>  (215) 
False

>  <uo_units>  (215) 
UO_0000065

>  <canonical_smiles>  (215) 
Cc1ccc(cc1\C=C\n2cnc3c(NC4CC4)ncnc23)C(=O)Nc5cc(ccn5)C(F)(F)F

>  <parent_molecule_chembl_id>  (215) 
CHEMBL556874

>  <assay_type>  (215) 
B

>  <src_id>  (215) 
1

>  <ligand_efficiency>  (215) 
{u'le': u'0.18', u'bei': u'9.8', u'sei': u'4.81', u'lle': u'0.77'}

>  <standard_flag>  (215) 
True

>  <molecule_chembl_id>  (215) 
CHEMBL556874

>  <target_organism>  (215) 
Homo sapiens

>  <standard_units>  (215) 
nM

>  <record_id>  (215) 
815871

>  <document_chembl_id>  (215) 
CHEMBL1158470

>  <bao_format>  (215) 
BAO_0000357

>  <data_validity_description>  (215) 
None

>  <activity_id>  (215) 
2653259

>  <standard_type>  (215) 
IC50

>  <target_chembl_id>  (215) 
CHEMBL1862

>  <data_validity_comment>  (215) 
None

>  <published_value>  (215) 
20

>  <document_year>  (215) 
2009

>  <target_pref_name>  (215) 
Tyrosine-protein kinase ABL

>  <assay_chembl_id>  (215) 
CHEMBL1031882

>  <standard_relation>  (215) 
=

>  <assay_description>  (215) 
Inhibition of wild type human Abl kinase by TR-FRET assay

>  <published_relation>  (215) 
=

>  <standard_value>  (215) 
20000

>  <qudt_units>  (215) 
http://www.openphacts.org/units/Nanomolar

>  <target_tax_id>  (215) 
9606

>  <bao_label>  (215) 
single protein format

>  <published_units>  (215) 
uM

>  <pchembl_value>  (215) 
4.7

>  <published_type>  (215) 
IC50

>  <activity_comment>  (215) 
None

$$$$

     RDKit          

 41 46  0  0  0  0  0  0  0  0999 V2000
    0.0000    0.0000    0.0000 C   0  0  0  0  0  0  0  0  0  0  0  0
    0.0000    0.0000    0.0000 C   0  0  0  0  0  0  0  0  0  0  0  0
    0.0000    0.0000    0.0000 C   0  0  0  0  0  0  0  0  0  0  0  0
    0.0000    0.0000    0.0000 N   0  0  0  0  0  0  0  0  0  0  0  0
    0.0000    0.0000    0.0000 C   0  0  0  0  0  0  0  0  0  0  0  0
    0.0000    0.0000    0.0000 N   0  0  0  0  0  0  0  0  0  0  0  0
    0.0000    0.0000    0.0000 C   0  0  0  0  0  0  0  0  0  0  0  0
    0.0000    0.0000    0.0000 C   0  0  0  0  0  0  0  0  0  0  0  0
    0.0000    0.0000    0.0000 C   0  0  0  0  0  0  0  0  0  0  0  0
    0.0000    0.0000    0.0000 N   0  0  0  0  0  0  0  0  0  0  0  0
    0.0000    0.0000    0.0000 C   0  0  0  0  0  0  0  0  0  0  0  0
    0.0000    0.0000    0.0000 O   0  0  0  0  0  0  0  0  0  0  0  0
    0.0000    0.0000    0.0000 C   0  0  0  0  0  0  0  0  0  0  0  0
    0.0000    0.0000    0.0000 C   0  0  0  0  0  0  0  0  0  0  0  0
    0.0000    0.0000    0.0000 C   0  0  0  0  0  0  0  0  0  0  0  0
    0.0000    0.0000    0.0000 C   0  0  0  0  0  0  0  0  0  0  0  0
    0.0000    0.0000    0.0000 C   0  0  0  0  0  0  0  0  0  0  0  0
    0.0000    0.0000    0.0000 C   0  0  0  0  0  0  0  0  0  0  0  0
    0.0000    0.0000    0.0000 C   0  0  0  0  0  0  0  0  0  0  0  0
    0.0000    0.0000    0.0000 C   0  0  0  0  0  0  0  0  0  0  0  0
    0.0000    0.0000    0.0000 N   0  0  0  0  0  0  0  0  0  0  0  0
    0.0000    0.0000    0.0000 C   0  0  0  0  0  0  0  0  0  0  0  0
    0.0000    0.0000    0.0000 N   0  0  0  0  0  0  0  0  0  0  0  0
    0.0000    0.0000    0.0000 C   0  0  0  0  0  0  0  0  0  0  0  0
    0.0000    0.0000    0.0000 C   0  0  0  0  0  0  0  0  0  0  0  0
    0.0000    0.0000    0.0000 N   0  0  0  0  0  0  0  0  0  0  0  0
    0.0000    0.0000    0.0000 C   0  0  0  0  0  0  0  0  0  0  0  0
    0.0000    0.0000    0.0000 C   0  0  0  0  0  0  0  0  0  0  0  0
    0.0000    0.0000    0.0000 C   0  0  0  0  0  0  0  0  0  0  0  0
    0.0000    0.0000    0.0000 N   0  0  0  0  0  0  0  0  0  0  0  0
    0.0000    0.0000    0.0000 C   0  0  0  0  0  0  0  0  0  0  0  0
    0.0000    0.0000    0.0000 N   0  0  0  0  0  0  0  0  0  0  0  0
    0.0000    0.0000    0.0000 C   0  0  0  0  0  0  0  0  0  0  0  0
    0.0000    0.0000    0.0000 C   0  0  0  0  0  0  0  0  0  0  0  0
    0.0000    0.0000    0.0000 C   0  0  0  0  0  0  0  0  0  0  0  0
    0.0000    0.0000    0.0000 C   0  0  0  0  0  0  0  0  0  0  0  0
    0.0000    0.0000    0.0000 C   0  0  0  0  0  0  0  0  0  0  0  0
    0.0000    0.0000    0.0000 C   0  0  0  0  0  0  0  0  0  0  0  0
    0.0000    0.0000    0.0000 F   0  0  0  0  0  0  0  0  0  0  0  0
    0.0000    0.0000    0.0000 F   0  0  0  0  0  0  0  0  0  0  0  0
    0.0000    0.0000    0.0000 F   0  0  0  0  0  0  0  0  0  0  0  0
  1  2  1  0
  2  3  2  0
  3  4  1  0
  4  5  1  0
  5  6  2  0
  4  7  1  0
  7  8  2  0
  8  9  1  0
  9 10  1  0
 10 11  1  0
 11 12  2  0
 11 13  1  0
 13 14  2  0
 14 15  1  0
 15 16  2  0
 16 17  1  0
 16 18  1  0
 18 19  1  0
 19 20  2  0
 20 21  1  0
 21 22  1  0
 22 23  2  0
 23 24  1  0
 24 25  2  0
 25 26  1  0
 26 27  1  0
 27 28  1  0
 28 29  1  0
 25 30  1  0
 30 31  2  0
 31 32  1  0
 32 33  2  0
 18 34  2  0
  9 35  2  0
 35 36  1  0
 36 37  2  0
 36 38  1  0
 38 39  1  0
 38 40  1  0
 38 41  1  0
  6  2  1  0
 37  7  1  0
 34 13  1  0
 33 21  1  0
 33 24  1  0
 29 27  1  0
M  END
>  <pIC50>  (216) 
4.6

>  <ChEMBL_ID>  (216) 
CHEMBL539433

>  <document_journal>  (216) 
J. Med. Chem.

>  <bao_endpoint>  (216) 
BAO_0000190

>  <potential_duplicate>  (216) 
False

>  <uo_units>  (216) 
UO_0000065

>  <canonical_smiles>  (216) 
Cc1cn(cn1)c2cc(NC(=O)c3ccc(C)c(\C=C\n4cnc5c(NC6CC6)ncnc45)c3)cc(c2)C(F)(F)F

>  <parent_molecule_chembl_id>  (216) 
CHEMBL539433

>  <assay_type>  (216) 
B

>  <src_id>  (216) 
1

>  <ligand_efficiency>  (216) 
{u'le': u'0.15', u'bei': u'8.24', u'sei': u'4.49', u'lle': u'0.11'}

>  <standard_flag>  (216) 
True

>  <molecule_chembl_id>  (216) 
CHEMBL539433

>  <target_organism>  (216) 
Homo sapiens

>  <standard_units>  (216) 
nM

>  <record_id>  (216) 
815872

>  <document_chembl_id>  (216) 
CHEMBL1158470

>  <bao_format>  (216) 
BAO_0000357

>  <data_validity_description>  (216) 
None

>  <activity_id>  (216) 
2653260

>  <standard_type>  (216) 
IC50

>  <target_chembl_id>  (216) 
CHEMBL1862

>  <data_validity_comment>  (216) 
None

>  <published_value>  (216) 
25

>  <document_year>  (216) 
2009

>  <target_pref_name>  (216) 
Tyrosine-protein kinase ABL

>  <assay_chembl_id>  (216) 
CHEMBL1031882

>  <standard_relation>  (216) 
=

>  <assay_description>  (216) 
Inhibition of wild type human Abl kinase by TR-FRET assay

>  <published_relation>  (216) 
=

>  <standard_value>  (216) 
25000

>  <qudt_units>  (216) 
http://www.openphacts.org/units/Nanomolar

>  <target_tax_id>  (216) 
9606

>  <bao_label>  (216) 
single protein format

>  <published_units>  (216) 
uM

>  <pchembl_value>  (216) 
4.6

>  <published_type>  (216) 
IC50

>  <activity_comment>  (216) 
None

$$$$

     RDKit          

 40 45  0  0  0  0  0  0  0  0999 V2000
    0.0000    0.0000    0.0000 C   0  0  0  0  0  0  0  0  0  0  0  0
    0.0000    0.0000    0.0000 C   0  0  0  0  0  0  0  0  0  0  0  0
    0.0000    0.0000    0.0000 C   0  0  0  0  0  0  0  0  0  0  0  0
    0.0000    0.0000    0.0000 C   0  0  0  0  0  0  0  0  0  0  0  0
    0.0000    0.0000    0.0000 C   0  0  0  0  0  0  0  0  0  0  0  0
    0.0000    0.0000    0.0000 C   0  0  0  0  0  0  0  0  0  0  0  0
    0.0000    0.0000    0.0000 C   0  0  0  0  0  0  0  0  0  0  0  0
    0.0000    0.0000    0.0000 C   0  0  0  0  0  0  0  0  0  0  0  0
    0.0000    0.0000    0.0000 C   0  0  0  0  0  0  0  0  0  0  0  0
    0.0000    0.0000    0.0000 N   0  0  0  0  0  0  0  0  0  0  0  0
    0.0000    0.0000    0.0000 C   0  0  0  0  0  0  0  0  0  0  0  0
    0.0000    0.0000    0.0000 N   0  0  0  0  0  0  0  0  0  0  0  0
    0.0000    0.0000    0.0000 C   0  0  0  0  0  0  0  0  0  0  0  0
    0.0000    0.0000    0.0000 C   0  0  0  0  0  0  0  0  0  0  0  0
    0.0000    0.0000    0.0000 N   0  0  0  0  0  0  0  0  0  0  0  0
    0.0000    0.0000    0.0000 C   0  0  0  0  0  0  0  0  0  0  0  0
    0.0000    0.0000    0.0000 C   0  0  0  0  0  0  0  0  0  0  0  0
    0.0000    0.0000    0.0000 C   0  0  0  0  0  0  0  0  0  0  0  0
    0.0000    0.0000    0.0000 N   0  0  0  0  0  0  0  0  0  0  0  0
    0.0000    0.0000    0.0000 C   0  0  0  0  0  0  0  0  0  0  0  0
    0.0000    0.0000    0.0000 N   0  0  0  0  0  0  0  0  0  0  0  0
    0.0000    0.0000    0.0000 C   0  0  0  0  0  0  0  0  0  0  0  0
    0.0000    0.0000    0.0000 C   0  0  0  0  0  0  0  0  0  0  0  0
    0.0000    0.0000    0.0000 O   0  0  0  0  0  0  0  0  0  0  0  0
    0.0000    0.0000    0.0000 N   0  0  0  0  0  0  0  0  0  0  0  0
    0.0000    0.0000    0.0000 C   0  0  0  0  0  0  0  0  0  0  0  0
    0.0000    0.0000    0.0000 C   0  0  0  0  0  0  0  0  0  0  0  0
    0.0000    0.0000    0.0000 C   0  0  0  0  0  0  0  0  0  0  0  0
    0.0000    0.0000    0.0000 C   0  0  0  0  0  0  0  0  0  0  0  0
    0.0000    0.0000    0.0000 C   0  0  0  0  0  0  0  0  0  0  0  0
    0.0000    0.0000    0.0000 C   0  0  0  0  0  0  0  0  0  0  0  0
    0.0000    0.0000    0.0000 C   0  0  0  0  0  0  0  0  0  0  0  0
    0.0000    0.0000    0.0000 F   0  0  0  0  0  0  0  0  0  0  0  0
    0.0000    0.0000    0.0000 F   0  0  0  0  0  0  0  0  0  0  0  0
    0.0000    0.0000    0.0000 F   0  0  0  0  0  0  0  0  0  0  0  0
    0.0000    0.0000    0.0000 N   0  0  0  0  0  0  0  0  0  0  0  0
    0.0000    0.0000    0.0000 C   0  0  0  0  0  0  0  0  0  0  0  0
    0.0000    0.0000    0.0000 C   0  0  0  0  0  0  0  0  0  0  0  0
    0.0000    0.0000    0.0000 N   0  0  0  0  0  0  0  0  0  0  0  0
    0.0000    0.0000    0.0000 C   0  0  0  0  0  0  0  0  0  0  0  0
  1  2  1  0
  2  3  2  0
  3  4  1  0
  4  5  2  0
  5  6  1  0
  6  7  2  0
  7  8  1  0
  8  9  2  0
  9 10  1  0
 10 11  1  0
 11 12  2  0
 12 13  1  0
 13 14  2  0
 14 15  1  0
 15 16  1  0
 16 17  1  0
 17 18  1  0
 14 19  1  0
 19 20  2  0
 20 21  1  0
 21 22  2  0
  5 23  1  0
 23 24  2  0
 23 25  1  0
 25 26  1  0
 26 27  2  0
 27 28  1  0
 28 29  2  0
 29 30  1  0
 30 31  2  0
 30 32  1  0
 32 33  1  0
 32 34  1  0
 32 35  1  0
 28 36  1  0
 36 37  1  0
 37 38  2  0
 38 39  1  0
 39 40  2  0
  7  2  1  0
 22 10  1  0
 22 13  1  0
 18 16  1  0
 31 26  1  0
 40 36  1  0
M  END
>  <pIC50>  (217) 
4.89

>  <ChEMBL_ID>  (217) 
CHEMBL559826

>  <document_journal>  (217) 
J. Med. Chem.

>  <bao_endpoint>  (217) 
BAO_0000190

>  <potential_duplicate>  (217) 
False

>  <uo_units>  (217) 
UO_0000065

>  <canonical_smiles>  (217) 
Cc1ccc(cc1\C=C\n2cnc3c(NC4CC4)ncnc23)C(=O)Nc5cc(cc(c5)C(F)(F)F)n6ccnc6

>  <parent_molecule_chembl_id>  (217) 
CHEMBL559826

>  <assay_type>  (217) 
B

>  <src_id>  (217) 
1

>  <ligand_efficiency>  (217) 
{u'le': u'0.17', u'bei': u'8.97', u'sei': u'4.76', u'lle': u'0.68'}

>  <standard_flag>  (217) 
True

>  <molecule_chembl_id>  (217) 
CHEMBL559826

>  <target_organism>  (217) 
Homo sapiens

>  <standard_units>  (217) 
nM

>  <record_id>  (217) 
815950

>  <document_chembl_id>  (217) 
CHEMBL1158470

>  <bao_format>  (217) 
BAO_0000357

>  <data_validity_description>  (217) 
None

>  <activity_id>  (217) 
2653261

>  <standard_type>  (217) 
IC50

>  <target_chembl_id>  (217) 
CHEMBL1862

>  <data_validity_comment>  (217) 
None

>  <published_value>  (217) 
13

>  <document_year>  (217) 
2009

>  <target_pref_name>  (217) 
Tyrosine-protein kinase ABL

>  <assay_chembl_id>  (217) 
CHEMBL1031882

>  <standard_relation>  (217) 
=

>  <assay_description>  (217) 
Inhibition of wild type human Abl kinase by TR-FRET assay

>  <published_relation>  (217) 
=

>  <standard_value>  (217) 
13000

>  <qudt_units>  (217) 
http://www.openphacts.org/units/Nanomolar

>  <target_tax_id>  (217) 
9606

>  <bao_label>  (217) 
single protein format

>  <published_units>  (217) 
uM

>  <pchembl_value>  (217) 
4.89

>  <published_type>  (217) 
IC50

>  <activity_comment>  (217) 
None

$$$$

     RDKit          

 41 46  0  0  0  0  0  0  0  0999 V2000
    0.0000    0.0000    0.0000 C   0  0  0  0  0  0  0  0  0  0  0  0
    0.0000    0.0000    0.0000 C   0  0  0  0  0  0  0  0  0  0  0  0
    0.0000    0.0000    0.0000 C   0  0  0  0  0  0  0  0  0  0  0  0
    0.0000    0.0000    0.0000 C   0  0  0  0  0  0  0  0  0  0  0  0
    0.0000    0.0000    0.0000 C   0  0  0  0  0  0  0  0  0  0  0  0
    0.0000    0.0000    0.0000 C   0  0  0  0  0  0  0  0  0  0  0  0
    0.0000    0.0000    0.0000 C   0  0  0  0  0  0  0  0  0  0  0  0
    0.0000    0.0000    0.0000 C   0  0  0  0  0  0  0  0  0  0  0  0
    0.0000    0.0000    0.0000 C   0  0  0  0  0  0  0  0  0  0  0  0
    0.0000    0.0000    0.0000 N   0  0  0  0  0  0  0  0  0  0  0  0
    0.0000    0.0000    0.0000 C   0  0  0  0  0  0  0  0  0  0  0  0
    0.0000    0.0000    0.0000 N   0  0  0  0  0  0  0  0  0  0  0  0
    0.0000    0.0000    0.0000 C   0  0  0  0  0  0  0  0  0  0  0  0
    0.0000    0.0000    0.0000 C   0  0  0  0  0  0  0  0  0  0  0  0
    0.0000    0.0000    0.0000 N   0  0  0  0  0  0  0  0  0  0  0  0
    0.0000    0.0000    0.0000 C   0  0  0  0  0  0  0  0  0  0  0  0
    0.0000    0.0000    0.0000 C   0  0  0  0  0  0  0  0  0  0  0  0
    0.0000    0.0000    0.0000 C   0  0  0  0  0  0  0  0  0  0  0  0
    0.0000    0.0000    0.0000 N   0  0  0  0  0  0  0  0  0  0  0  0
    0.0000    0.0000    0.0000 C   0  0  0  0  0  0  0  0  0  0  0  0
    0.0000    0.0000    0.0000 N   0  0  0  0  0  0  0  0  0  0  0  0
    0.0000    0.0000    0.0000 C   0  0  0  0  0  0  0  0  0  0  0  0
    0.0000    0.0000    0.0000 C   0  0  0  0  0  0  0  0  0  0  0  0
    0.0000    0.0000    0.0000 O   0  0  0  0  0  0  0  0  0  0  0  0
    0.0000    0.0000    0.0000 N   0  0  0  0  0  0  0  0  0  0  0  0
    0.0000    0.0000    0.0000 C   0  0  0  0  0  0  0  0  0  0  0  0
    0.0000    0.0000    0.0000 C   0  0  0  0  0  0  0  0  0  0  0  0
    0.0000    0.0000    0.0000 C   0  0  0  0  0  0  0  0  0  0  0  0
    0.0000    0.0000    0.0000 C   0  0  0  0  0  0  0  0  0  0  0  0
    0.0000    0.0000    0.0000 C   0  0  0  0  0  0  0  0  0  0  0  0
    0.0000    0.0000    0.0000 C   0  0  0  0  0  0  0  0  0  0  0  0
    0.0000    0.0000    0.0000 C   0  0  0  0  0  0  0  0  0  0  0  0
    0.0000    0.0000    0.0000 F   0  0  0  0  0  0  0  0  0  0  0  0
    0.0000    0.0000    0.0000 F   0  0  0  0  0  0  0  0  0  0  0  0
    0.0000    0.0000    0.0000 F   0  0  0  0  0  0  0  0  0  0  0  0
    0.0000    0.0000    0.0000 N   0  0  0  0  0  0  0  0  0  0  0  0
    0.0000    0.0000    0.0000 C   0  0  0  0  0  0  0  0  0  0  0  0
    0.0000    0.0000    0.0000 C   0  0  0  0  0  0  0  0  0  0  0  0
    0.0000    0.0000    0.0000 O   0  0  0  0  0  0  0  0  0  0  0  0
    0.0000    0.0000    0.0000 C   0  0  0  0  0  0  0  0  0  0  0  0
    0.0000    0.0000    0.0000 C   0  0  0  0  0  0  0  0  0  0  0  0
  1  2  1  0
  2  3  2  0
  3  4  1  0
  4  5  2  0
  5  6  1  0
  6  7  2  0
  7  8  1  0
  8  9  2  0
  9 10  1  0
 10 11  1  0
 11 12  2  0
 12 13  1  0
 13 14  2  0
 14 15  1  0
 15 16  1  0
 16 17  1  0
 17 18  1  0
 14 19  1  0
 19 20  2  0
 20 21  1  0
 21 22  2  0
  5 23  1  0
 23 24  2  0
 23 25  1  0
 25 26  1  0
 26 27  2  0
 27 28  1  0
 28 29  2  0
 29 30  1  0
 30 31  2  0
 30 32  1  0
 32 33  1  0
 32 34  1  0
 32 35  1  0
 28 36  1  0
 36 37  1  0
 37 38  1  0
 38 39  1  0
 39 40  1  0
 40 41  1  0
  7  2  1  0
 22 10  1  0
 22 13  1  0
 18 16  1  0
 31 26  1  0
 41 36  1  0
M  END
>  <pIC50>  (218) 
4.14

>  <ChEMBL_ID>  (218) 
CHEMBL553695

>  <document_journal>  (218) 
J. Med. Chem.

>  <bao_endpoint>  (218) 
BAO_0000190

>  <potential_duplicate>  (218) 
False

>  <uo_units>  (218) 
UO_0000065

>  <canonical_smiles>  (218) 
Cc1ccc(cc1\C=C\n2cnc3c(NC4CC4)ncnc23)C(=O)Nc5cc(cc(c5)C(F)(F)F)N6CCOCC6

>  <parent_molecule_chembl_id>  (218) 
CHEMBL553695

>  <assay_type>  (218) 
B

>  <src_id>  (218) 
1

>  <ligand_efficiency>  (218) 
{u'le': u'0.14', u'bei': u'7.35', u'sei': u'4.26', u'lle': u'-0.25'}

>  <standard_flag>  (218) 
True

>  <molecule_chembl_id>  (218) 
CHEMBL553695

>  <target_organism>  (218) 
Homo sapiens

>  <standard_units>  (218) 
nM

>  <record_id>  (218) 
815951

>  <document_chembl_id>  (218) 
CHEMBL1158470

>  <bao_format>  (218) 
BAO_0000357

>  <data_validity_description>  (218) 
None

>  <activity_id>  (218) 
2653262

>  <standard_type>  (218) 
IC50

>  <target_chembl_id>  (218) 
CHEMBL1862

>  <data_validity_comment>  (218) 
None

>  <published_value>  (218) 
72

>  <document_year>  (218) 
2009

>  <target_pref_name>  (218) 
Tyrosine-protein kinase ABL

>  <assay_chembl_id>  (218) 
CHEMBL1031882

>  <standard_relation>  (218) 
=

>  <assay_description>  (218) 
Inhibition of wild type human Abl kinase by TR-FRET assay

>  <published_relation>  (218) 
=

>  <standard_value>  (218) 
72000

>  <qudt_units>  (218) 
http://www.openphacts.org/units/Nanomolar

>  <target_tax_id>  (218) 
9606

>  <bao_label>  (218) 
single protein format

>  <published_units>  (218) 
uM

>  <pchembl_value>  (218) 
4.14

>  <published_type>  (218) 
IC50

>  <activity_comment>  (218) 
None

$$$$

     RDKit          

 42 47  0  0  0  0  0  0  0  0999 V2000
    0.0000    0.0000    0.0000 C   0  0  0  0  0  0  0  0  0  0  0  0
    0.0000    0.0000    0.0000 N   0  0  0  0  0  0  0  0  0  0  0  0
    0.0000    0.0000    0.0000 C   0  0  0  0  0  0  0  0  0  0  0  0
    0.0000    0.0000    0.0000 C   0  0  0  0  0  0  0  0  0  0  0  0
    0.0000    0.0000    0.0000 N   0  0  0  0  0  0  0  0  0  0  0  0
    0.0000    0.0000    0.0000 C   0  0  0  0  0  0  0  0  0  0  0  0
    0.0000    0.0000    0.0000 C   0  0  0  0  0  0  0  0  0  0  0  0
    0.0000    0.0000    0.0000 C   0  0  0  0  0  0  0  0  0  0  0  0
    0.0000    0.0000    0.0000 C   0  0  0  0  0  0  0  0  0  0  0  0
    0.0000    0.0000    0.0000 C   0  0  0  0  0  0  0  0  0  0  0  0
    0.0000    0.0000    0.0000 N   0  0  0  0  0  0  0  0  0  0  0  0
    0.0000    0.0000    0.0000 C   0  0  0  0  0  0  0  0  0  0  0  0
    0.0000    0.0000    0.0000 O   0  0  0  0  0  0  0  0  0  0  0  0
    0.0000    0.0000    0.0000 C   0  0  0  0  0  0  0  0  0  0  0  0
    0.0000    0.0000    0.0000 C   0  0  0  0  0  0  0  0  0  0  0  0
    0.0000    0.0000    0.0000 C   0  0  0  0  0  0  0  0  0  0  0  0
    0.0000    0.0000    0.0000 C   0  0  0  0  0  0  0  0  0  0  0  0
    0.0000    0.0000    0.0000 C   0  0  0  0  0  0  0  0  0  0  0  0
    0.0000    0.0000    0.0000 C   0  0  0  0  0  0  0  0  0  0  0  0
    0.0000    0.0000    0.0000 C   0  0  0  0  0  0  0  0  0  0  0  0
    0.0000    0.0000    0.0000 C   0  0  0  0  0  0  0  0  0  0  0  0
    0.0000    0.0000    0.0000 N   0  0  0  0  0  0  0  0  0  0  0  0
    0.0000    0.0000    0.0000 C   0  0  0  0  0  0  0  0  0  0  0  0
    0.0000    0.0000    0.0000 N   0  0  0  0  0  0  0  0  0  0  0  0
    0.0000    0.0000    0.0000 C   0  0  0  0  0  0  0  0  0  0  0  0
    0.0000    0.0000    0.0000 C   0  0  0  0  0  0  0  0  0  0  0  0
    0.0000    0.0000    0.0000 N   0  0  0  0  0  0  0  0  0  0  0  0
    0.0000    0.0000    0.0000 C   0  0  0  0  0  0  0  0  0  0  0  0
    0.0000    0.0000    0.0000 C   0  0  0  0  0  0  0  0  0  0  0  0
    0.0000    0.0000    0.0000 C   0  0  0  0  0  0  0  0  0  0  0  0
    0.0000    0.0000    0.0000 N   0  0  0  0  0  0  0  0  0  0  0  0
    0.0000    0.0000    0.0000 C   0  0  0  0  0  0  0  0  0  0  0  0
    0.0000    0.0000    0.0000 N   0  0  0  0  0  0  0  0  0  0  0  0
    0.0000    0.0000    0.0000 C   0  0  0  0  0  0  0  0  0  0  0  0
    0.0000    0.0000    0.0000 C   0  0  0  0  0  0  0  0  0  0  0  0
    0.0000    0.0000    0.0000 C   0  0  0  0  0  0  0  0  0  0  0  0
    0.0000    0.0000    0.0000 C   0  0  0  0  0  0  0  0  0  0  0  0
    0.0000    0.0000    0.0000 C   0  0  0  0  0  0  0  0  0  0  0  0
    0.0000    0.0000    0.0000 C   0  0  0  0  0  0  0  0  0  0  0  0
    0.0000    0.0000    0.0000 F   0  0  0  0  0  0  0  0  0  0  0  0
    0.0000    0.0000    0.0000 F   0  0  0  0  0  0  0  0  0  0  0  0
    0.0000    0.0000    0.0000 F   0  0  0  0  0  0  0  0  0  0  0  0
  1  2  1  0
  2  3  1  0
  3  4  1  0
  4  5  1  0
  5  6  1  0
  6  7  1  0
  5  8  1  0
  8  9  2  0
  9 10  1  0
 10 11  1  0
 11 12  1  0
 12 13  2  0
 12 14  1  0
 14 15  2  0
 15 16  1  0
 16 17  2  0
 17 18  1  0
 17 19  1  0
 19 20  1  0
 20 21  2  0
 21 22  1  0
 22 23  1  0
 23 24  2  0
 24 25  1  0
 25 26  2  0
 26 27  1  0
 27 28  1  0
 28 29  1  0
 29 30  1  0
 26 31  1  0
 31 32  2  0
 32 33  1  0
 33 34  2  0
 19 35  2  0
 10 36  2  0
 36 37  1  0
 37 38  2  0
 37 39  1  0
 39 40  1  0
 39 41  1  0
 39 42  1  0
  7  2  1  0
 38  8  1  0
 35 14  1  0
 34 22  1  0
 34 25  1  0
 30 28  1  0
M  END
>  <pIC50>  (219) 
4.62

>  <ChEMBL_ID>  (219) 
CHEMBL556746

>  <document_journal>  (219) 
J. Med. Chem.

>  <bao_endpoint>  (219) 
BAO_0000190

>  <potential_duplicate>  (219) 
False

>  <uo_units>  (219) 
UO_0000065

>  <canonical_smiles>  (219) 
CN1CCN(CC1)c2cc(NC(=O)c3ccc(C)c(\C=C\n4cnc5c(NC6CC6)ncnc45)c3)cc(c2)C(F)(F)F

>  <parent_molecule_chembl_id>  (219) 
CHEMBL556746

>  <assay_type>  (219) 
B

>  <src_id>  (219) 
1

>  <ligand_efficiency>  (219) 
{u'le': u'0.15', u'bei': u'8.01', u'sei': u'5.07', u'lle': u'-0.04'}

>  <standard_flag>  (219) 
True

>  <molecule_chembl_id>  (219) 
CHEMBL556746

>  <target_organism>  (219) 
Homo sapiens

>  <standard_units>  (219) 
nM

>  <record_id>  (219) 
815952

>  <document_chembl_id>  (219) 
CHEMBL1158470

>  <bao_format>  (219) 
BAO_0000357

>  <data_validity_description>  (219) 
None

>  <activity_id>  (219) 
2653263

>  <standard_type>  (219) 
IC50

>  <target_chembl_id>  (219) 
CHEMBL1862

>  <data_validity_comment>  (219) 
None

>  <published_value>  (219) 
24

>  <document_year>  (219) 
2009

>  <target_pref_name>  (219) 
Tyrosine-protein kinase ABL

>  <assay_chembl_id>  (219) 
CHEMBL1031882

>  <standard_relation>  (219) 
=

>  <assay_description>  (219) 
Inhibition of wild type human Abl kinase by TR-FRET assay

>  <published_relation>  (219) 
=

>  <standard_value>  (219) 
24000

>  <qudt_units>  (219) 
http://www.openphacts.org/units/Nanomolar

>  <target_tax_id>  (219) 
9606

>  <bao_label>  (219) 
single protein format

>  <published_units>  (219) 
uM

>  <pchembl_value>  (219) 
4.62

>  <published_type>  (219) 
IC50

>  <activity_comment>  (219) 
None

$$$$

     RDKit          

 37 41  0  0  0  0  0  0  0  0999 V2000
    0.0000    0.0000    0.0000 C   0  0  0  0  0  0  0  0  0  0  0  0
    0.0000    0.0000    0.0000 C   0  0  0  0  0  0  0  0  0  0  0  0
    0.0000    0.0000    0.0000 C   0  0  0  0  0  0  0  0  0  0  0  0
    0.0000    0.0000    0.0000 N   0  0  0  0  0  0  0  0  0  0  0  0
    0.0000    0.0000    0.0000 C   0  0  0  0  0  0  0  0  0  0  0  0
    0.0000    0.0000    0.0000 N   0  0  0  0  0  0  0  0  0  0  0  0
    0.0000    0.0000    0.0000 C   0  0  0  0  0  0  0  0  0  0  0  0
    0.0000    0.0000    0.0000 C   0  0  0  0  0  0  0  0  0  0  0  0
    0.0000    0.0000    0.0000 C   0  0  0  0  0  0  0  0  0  0  0  0
    0.0000    0.0000    0.0000 N   0  0  0  0  0  0  0  0  0  0  0  0
    0.0000    0.0000    0.0000 C   0  0  0  0  0  0  0  0  0  0  0  0
    0.0000    0.0000    0.0000 O   0  0  0  0  0  0  0  0  0  0  0  0
    0.0000    0.0000    0.0000 C   0  0  0  0  0  0  0  0  0  0  0  0
    0.0000    0.0000    0.0000 C   0  0  0  0  0  0  0  0  0  0  0  0
    0.0000    0.0000    0.0000 C   0  0  0  0  0  0  0  0  0  0  0  0
    0.0000    0.0000    0.0000 C   0  0  0  0  0  0  0  0  0  0  0  0
    0.0000    0.0000    0.0000 C   0  0  0  0  0  0  0  0  0  0  0  0
    0.0000    0.0000    0.0000 C   0  0  0  0  0  0  0  0  0  0  0  0
    0.0000    0.0000    0.0000 C   0  0  0  0  0  0  0  0  0  0  0  0
    0.0000    0.0000    0.0000 C   0  0  0  0  0  0  0  0  0  0  0  0
    0.0000    0.0000    0.0000 N   0  0  0  0  0  0  0  0  0  0  0  0
    0.0000    0.0000    0.0000 C   0  0  0  0  0  0  0  0  0  0  0  0
    0.0000    0.0000    0.0000 N   0  0  0  0  0  0  0  0  0  0  0  0
    0.0000    0.0000    0.0000 C   0  0  0  0  0  0  0  0  0  0  0  0
    0.0000    0.0000    0.0000 C   0  0  0  0  0  0  0  0  0  0  0  0
    0.0000    0.0000    0.0000 N   0  0  0  0  0  0  0  0  0  0  0  0
    0.0000    0.0000    0.0000 C   0  0  0  0  0  0  0  0  0  0  0  0
    0.0000    0.0000    0.0000 N   0  0  0  0  0  0  0  0  0  0  0  0
    0.0000    0.0000    0.0000 C   0  0  0  0  0  0  0  0  0  0  0  0
    0.0000    0.0000    0.0000 C   0  0  0  0  0  0  0  0  0  0  0  0
    0.0000    0.0000    0.0000 C   0  0  0  0  0  0  0  0  0  0  0  0
    0.0000    0.0000    0.0000 C   0  0  0  0  0  0  0  0  0  0  0  0
    0.0000    0.0000    0.0000 C   0  0  0  0  0  0  0  0  0  0  0  0
    0.0000    0.0000    0.0000 C   0  0  0  0  0  0  0  0  0  0  0  0
    0.0000    0.0000    0.0000 F   0  0  0  0  0  0  0  0  0  0  0  0
    0.0000    0.0000    0.0000 F   0  0  0  0  0  0  0  0  0  0  0  0
    0.0000    0.0000    0.0000 F   0  0  0  0  0  0  0  0  0  0  0  0
  1  2  1  0
  2  3  2  0
  3  4  1  0
  4  5  1  0
  5  6  2  0
  4  7  1  0
  7  8  2  0
  8  9  1  0
  9 10  1  0
 10 11  1  0
 11 12  2  0
 11 13  1  0
 13 14  2  0
 14 15  1  0
 15 16  2  0
 16 17  1  0
 16 18  1  0
 18 19  1  0
 19 20  2  0
 20 21  1  0
 21 22  1  0
 22 23  2  0
 23 24  1  0
 24 25  2  0
 25 26  1  0
 26 27  2  0
 27 28  1  0
 28 29  2  0
 18 30  2  0
  9 31  2  0
 31 32  1  0
 32 33  2  0
 32 34  1  0
 34 35  1  0
 34 36  1  0
 34 37  1  0
  6  2  1  0
 33  7  1  0
 30 13  1  0
 29 21  1  0
 29 24  1  0
M  END
>  <pIC50>  (220) 
7.32

>  <ChEMBL_ID>  (220) 
CHEMBL559838

>  <document_journal>  (220) 
J. Med. Chem.

>  <bao_endpoint>  (220) 
BAO_0000190

>  <potential_duplicate>  (220) 
False

>  <uo_units>  (220) 
UO_0000065

>  <canonical_smiles>  (220) 
Cc1cn(cn1)c2cc(NC(=O)c3ccc(C)c(\C=C\n4cnc5cncnc45)c3)cc(c2)C(F)(F)F

>  <parent_molecule_chembl_id>  (220) 
CHEMBL559838

>  <assay_type>  (220) 
B

>  <src_id>  (220) 
1

>  <ligand_efficiency>  (220) 
{u'le': u'0.27', u'bei': u'14.54', u'sei': u'8.09', u'lle': u'3.66'}

>  <standard_flag>  (220) 
True

>  <molecule_chembl_id>  (220) 
CHEMBL559838

>  <target_organism>  (220) 
Homo sapiens

>  <standard_units>  (220) 
nM

>  <record_id>  (220) 
815954

>  <document_chembl_id>  (220) 
CHEMBL1158470

>  <bao_format>  (220) 
BAO_0000357

>  <data_validity_description>  (220) 
None

>  <activity_id>  (220) 
2654024

>  <standard_type>  (220) 
IC50

>  <target_chembl_id>  (220) 
CHEMBL1862

>  <data_validity_comment>  (220) 
None

>  <published_value>  (220) 
48

>  <document_year>  (220) 
2009

>  <target_pref_name>  (220) 
Tyrosine-protein kinase ABL

>  <assay_chembl_id>  (220) 
CHEMBL1031882

>  <standard_relation>  (220) 
=

>  <assay_description>  (220) 
Inhibition of wild type human Abl kinase by TR-FRET assay

>  <published_relation>  (220) 
=

>  <standard_value>  (220) 
48

>  <qudt_units>  (220) 
http://www.openphacts.org/units/Nanomolar

>  <target_tax_id>  (220) 
9606

>  <bao_label>  (220) 
single protein format

>  <published_units>  (220) 
nM

>  <pchembl_value>  (220) 
7.32

>  <published_type>  (220) 
IC50

>  <activity_comment>  (220) 
None

$$$$

     RDKit          

 31 34  0  0  0  0  0  0  0  0999 V2000
    0.0000    0.0000    0.0000 C   0  0  0  0  0  0  0  0  0  0  0  0
    0.0000    0.0000    0.0000 C   0  0  0  0  0  0  0  0  0  0  0  0
    0.0000    0.0000    0.0000 C   0  0  0  0  0  0  0  0  0  0  0  0
    0.0000    0.0000    0.0000 C   0  0  0  0  0  0  0  0  0  0  0  0
    0.0000    0.0000    0.0000 C   0  0  0  0  0  0  0  0  0  0  0  0
    0.0000    0.0000    0.0000 C   0  0  0  0  0  0  0  0  0  0  0  0
    0.0000    0.0000    0.0000 C   0  0  0  0  0  0  0  0  0  0  0  0
    0.0000    0.0000    0.0000 C   0  0  0  0  0  0  0  0  0  0  0  0
    0.0000    0.0000    0.0000 C   0  0  0  0  0  0  0  0  0  0  0  0
    0.0000    0.0000    0.0000 N   0  0  0  0  0  0  0  0  0  0  0  0
    0.0000    0.0000    0.0000 C   0  0  0  0  0  0  0  0  0  0  0  0
    0.0000    0.0000    0.0000 N   0  0  0  0  0  0  0  0  0  0  0  0
    0.0000    0.0000    0.0000 C   0  0  0  0  0  0  0  0  0  0  0  0
    0.0000    0.0000    0.0000 C   0  0  0  0  0  0  0  0  0  0  0  0
    0.0000    0.0000    0.0000 N   0  0  0  0  0  0  0  0  0  0  0  0
    0.0000    0.0000    0.0000 C   0  0  0  0  0  0  0  0  0  0  0  0
    0.0000    0.0000    0.0000 N   0  0  0  0  0  0  0  0  0  0  0  0
    0.0000    0.0000    0.0000 C   0  0  0  0  0  0  0  0  0  0  0  0
    0.0000    0.0000    0.0000 C   0  0  0  0  0  0  0  0  0  0  0  0
    0.0000    0.0000    0.0000 O   0  0  0  0  0  0  0  0  0  0  0  0
    0.0000    0.0000    0.0000 N   0  0  0  0  0  0  0  0  0  0  0  0
    0.0000    0.0000    0.0000 C   0  0  0  0  0  0  0  0  0  0  0  0
    0.0000    0.0000    0.0000 C   0  0  0  0  0  0  0  0  0  0  0  0
    0.0000    0.0000    0.0000 C   0  0  0  0  0  0  0  0  0  0  0  0
    0.0000    0.0000    0.0000 C   0  0  0  0  0  0  0  0  0  0  0  0
    0.0000    0.0000    0.0000 C   0  0  0  0  0  0  0  0  0  0  0  0
    0.0000    0.0000    0.0000 N   0  0  0  0  0  0  0  0  0  0  0  0
    0.0000    0.0000    0.0000 C   0  0  0  0  0  0  0  0  0  0  0  0
    0.0000    0.0000    0.0000 F   0  0  0  0  0  0  0  0  0  0  0  0
    0.0000    0.0000    0.0000 F   0  0  0  0  0  0  0  0  0  0  0  0
    0.0000    0.0000    0.0000 F   0  0  0  0  0  0  0  0  0  0  0  0
  1  2  1  0
  2  3  2  0
  3  4  1  0
  4  5  2  0
  5  6  1  0
  6  7  2  0
  7  8  1  0
  8  9  2  0
  9 10  1  0
 10 11  1  0
 11 12  2  0
 12 13  1  0
 13 14  2  0
 14 15  1  0
 15 16  2  0
 16 17  1  0
 17 18  2  0
  5 19  1  0
 19 20  2  0
 19 21  1  0
 21 22  1  0
 22 23  2  0
 23 24  1  0
 24 25  2  0
 25 26  1  0
 26 27  2  0
 24 28  1  0
 28 29  1  0
 28 30  1  0
 28 31  1  0
  7  2  1  0
 18 10  1  0
 18 13  1  0
 27 22  1  0
M  END
>  <pIC50>  (221) 
7.42

>  <ChEMBL_ID>  (221) 
CHEMBL550281

>  <document_journal>  (221) 
J. Med. Chem.

>  <bao_endpoint>  (221) 
BAO_0000190

>  <potential_duplicate>  (221) 
False

>  <uo_units>  (221) 
UO_0000065

>  <canonical_smiles>  (221) 
Cc1ccc(cc1\C=C\n2cnc3cncnc23)C(=O)Nc4cc(ccn4)C(F)(F)F

>  <parent_molecule_chembl_id>  (221) 
CHEMBL550281

>  <assay_type>  (221) 
B

>  <src_id>  (221) 
1

>  <ligand_efficiency>  (221) 
{u'le': u'0.33', u'bei': u'17.48', u'sei': u'8.67', u'lle': u'4.33'}

>  <standard_flag>  (221) 
True

>  <molecule_chembl_id>  (221) 
CHEMBL550281

>  <target_organism>  (221) 
Homo sapiens

>  <standard_units>  (221) 
nM

>  <record_id>  (221) 
816029

>  <document_chembl_id>  (221) 
CHEMBL1158470

>  <bao_format>  (221) 
BAO_0000357

>  <data_validity_description>  (221) 
None

>  <activity_id>  (221) 
2654025

>  <standard_type>  (221) 
IC50

>  <target_chembl_id>  (221) 
CHEMBL1862

>  <data_validity_comment>  (221) 
None

>  <published_value>  (221) 
38

>  <document_year>  (221) 
2009

>  <target_pref_name>  (221) 
Tyrosine-protein kinase ABL

>  <assay_chembl_id>  (221) 
CHEMBL1031882

>  <standard_relation>  (221) 
=

>  <assay_description>  (221) 
Inhibition of wild type human Abl kinase by TR-FRET assay

>  <published_relation>  (221) 
=

>  <standard_value>  (221) 
38

>  <qudt_units>  (221) 
http://www.openphacts.org/units/Nanomolar

>  <target_tax_id>  (221) 
9606

>  <bao_label>  (221) 
single protein format

>  <published_units>  (221) 
nM

>  <pchembl_value>  (221) 
7.42

>  <published_type>  (221) 
IC50

>  <activity_comment>  (221) 
None

$$$$

     RDKit          

 34 38  0  0  0  0  0  0  0  0999 V2000
    0.0000    0.0000    0.0000 C   0  0  0  0  0  0  0  0  0  0  0  0
    0.0000    0.0000    0.0000 N   0  0  0  0  0  0  0  0  0  0  0  0
    0.0000    0.0000    0.0000 C   0  0  0  0  0  0  0  0  0  0  0  0
    0.0000    0.0000    0.0000 O   0  0  0  0  0  0  0  0  0  0  0  0
    0.0000    0.0000    0.0000 C   0  0  0  0  0  0  0  0  0  0  0  0
    0.0000    0.0000    0.0000 N   0  0  0  0  0  0  0  0  0  0  0  0
    0.0000    0.0000    0.0000 N   0  0  0  0  0  0  0  0  0  0  0  0
    0.0000    0.0000    0.0000 C   0  0  0  0  0  0  0  0  0  0  0  0
    0.0000    0.0000    0.0000 C   0  0  0  0  0  0  0  0  0  0  0  0
    0.0000    0.0000    0.0000 C   0  0  0  0  0  0  0  0  0  0  0  0
    0.0000    0.0000    0.0000 N   0  0  0  0  0  0  0  0  0  0  0  0
    0.0000    0.0000    0.0000 C   0  0  0  0  0  0  0  0  0  0  0  0
    0.0000    0.0000    0.0000 N   0  0  0  0  0  0  0  0  0  0  0  0
    0.0000    0.0000    0.0000 C   0  0  0  0  0  0  0  0  0  0  0  0
    0.0000    0.0000    0.0000 C   0  0  0  0  0  0  0  0  0  0  0  0
    0.0000    0.0000    0.0000 C   0  0  0  0  0  0  0  0  0  0  0  0
    0.0000    0.0000    0.0000 C   0  0  0  0  0  0  0  0  0  0  0  0
    0.0000    0.0000    0.0000 C   0  0  0  0  0  0  0  0  0  0  0  0
    0.0000    0.0000    0.0000 C   0  0  0  0  0  0  0  0  0  0  0  0
    0.0000    0.0000    0.0000 N   0  0  0  0  0  0  0  0  0  0  0  0
    0.0000    0.0000    0.0000 C   0  0  0  0  0  0  0  0  0  0  0  0
    0.0000    0.0000    0.0000 C   0  0  0  0  0  0  0  0  0  0  0  0
    0.0000    0.0000    0.0000 N   0  0  0  0  0  0  0  0  0  0  0  0
    0.0000    0.0000    0.0000 C   0  0  0  0  0  0  0  0  0  0  0  0
    0.0000    0.0000    0.0000 C   0  0  0  0  0  0  0  0  0  0  0  0
    0.0000    0.0000    0.0000 C   0  0  0  0  0  0  0  0  0  0  0  0
    0.0000    0.0000    0.0000 N   0  0  0  0  0  0  0  0  0  0  0  0
    0.0000    0.0000    0.0000 C   0  0  0  0  0  0  0  0  0  0  0  0
    0.0000    0.0000    0.0000 C   0  0  0  0  0  0  0  0  0  0  0  0
    0.0000    0.0000    0.0000 C   0  0  0  0  0  0  0  0  0  0  0  0
    0.0000    0.0000    0.0000 C   0  0  0  0  0  0  0  0  0  0  0  0
    0.0000    0.0000    0.0000 C   0  0  0  0  0  0  0  0  0  0  0  0
    0.0000    0.0000    0.0000 C   0  0  0  0  0  0  0  0  0  0  0  0
    0.0000    0.0000    0.0000 C   0  0  0  0  0  0  0  0  0  0  0  0
  1  2  1  0
  2  3  1  0
  3  4  2  0
  3  5  1  0
  5  6  2  0
  6  7  1  0
  7  8  1  0
  7  9  1  0
  9 10  1  0
 10 11  2  0
 11 12  1  0
 12 13  1  0
 13 14  1  0
 14 15  2  0
 15 16  1  0
 16 17  2  0
 17 18  1  0
 18 19  2  0
 17 20  1  0
 20 21  1  0
 21 22  1  0
 22 23  1  0
 23 24  1  0
 23 25  1  0
 25 26  1  0
 12 27  2  0
 27 28  1  0
 28 29  2  0
 29 30  1  0
 30 31  1  0
 31 32  1  0
 31 33  1  0
 31 34  1  0
 34  5  1  0
 34  9  2  0
 29 10  1  0
 19 14  1  0
 26 20  1  0
M  END
>  <pIC50>  (222) 
6.32

>  <ChEMBL_ID>  (222) 
CHEMBL564829

>  <document_journal>  (222) 
J. Med. Chem.

>  <bao_endpoint>  (222) 
BAO_0000190

>  <potential_duplicate>  (222) 
False

>  <uo_units>  (222) 
UO_0000065

>  <canonical_smiles>  (222) 
CNC(=O)c1nn(C)c2c3nc(Nc4ccc(cc4)N5CCN(C)CC5)ncc3CC(C)(C)c12

>  <parent_molecule_chembl_id>  (222) 
CHEMBL564829

>  <assay_type>  (222) 
B

>  <src_id>  (222) 
1

>  <ligand_efficiency>  (222) 
{u'le': u'0.25', u'bei': u'13.72', u'sei': u'6.93', u'lle': u'2.49'}

>  <standard_flag>  (222) 
True

>  <molecule_chembl_id>  (222) 
CHEMBL564829

>  <target_organism>  (222) 
Homo sapiens

>  <standard_units>  (222) 
nM

>  <record_id>  (222) 
817704

>  <document_chembl_id>  (222) 
CHEMBL1151962

>  <bao_format>  (222) 
BAO_0000357

>  <data_validity_description>  (222) 
None

>  <activity_id>  (222) 
2661397

>  <standard_type>  (222) 
IC50

>  <target_chembl_id>  (222) 
CHEMBL1862

>  <data_validity_comment>  (222) 
None

>  <published_value>  (222) 
0.478

>  <document_year>  (222) 
2009

>  <target_pref_name>  (222) 
Tyrosine-protein kinase ABL

>  <assay_chembl_id>  (222) 
CHEMBL1058603

>  <standard_relation>  (222) 
=

>  <assay_description>  (222) 
Inhibition of c-ABL

>  <published_relation>  (222) 
=

>  <standard_value>  (222) 
478

>  <qudt_units>  (222) 
http://www.openphacts.org/units/Nanomolar

>  <target_tax_id>  (222) 
9606

>  <bao_label>  (222) 
single protein format

>  <published_units>  (222) 
uM

>  <pchembl_value>  (222) 
6.32

>  <published_type>  (222) 
IC50

>  <activity_comment>  (222) 
None

$$$$

     RDKit          

 36 39  0  0  0  0  0  0  0  0999 V2000
    0.0000    0.0000    0.0000 C   0  0  0  0  0  0  0  0  0  0  0  0
    0.0000    0.0000    0.0000 O   0  0  0  0  0  0  0  0  0  0  0  0
    0.0000    0.0000    0.0000 C   0  0  0  0  0  0  0  0  0  0  0  0
    0.0000    0.0000    0.0000 C   0  0  0  0  0  0  0  0  0  0  0  0
    0.0000    0.0000    0.0000 O   0  0  0  0  0  0  0  0  0  0  0  0
    0.0000    0.0000    0.0000 C   0  0  0  0  0  0  0  0  0  0  0  0
    0.0000    0.0000    0.0000 C   0  0  0  0  0  0  0  0  0  0  0  0
    0.0000    0.0000    0.0000 C   0  0  0  0  0  0  0  0  0  0  0  0
    0.0000    0.0000    0.0000 N   0  0  0  0  0  0  0  0  0  0  0  0
    0.0000    0.0000    0.0000 C   0  0  0  0  0  0  0  0  0  0  0  0
    0.0000    0.0000    0.0000 N   0  0  0  0  0  0  0  0  0  0  0  0
    0.0000    0.0000    0.0000 C   0  0  0  0  0  0  0  0  0  0  0  0
    0.0000    0.0000    0.0000 N   0  0  0  0  0  0  0  0  0  0  0  0
    0.0000    0.0000    0.0000 C   0  0  0  0  0  0  0  0  0  0  0  0
    0.0000    0.0000    0.0000 C   0  0  0  0  0  0  0  0  0  0  0  0
    0.0000    0.0000    0.0000 C   0  0  0  0  0  0  0  0  0  0  0  0
    0.0000    0.0000    0.0000 C   0  0  0  0  0  0  0  0  0  0  0  0
    0.0000    0.0000    0.0000 C   0  0  0  0  0  0  0  0  0  0  0  0
    0.0000    0.0000    0.0000 Cl  0  0  0  0  0  0  0  0  0  0  0  0
    0.0000    0.0000    0.0000 C   0  0  0  0  0  0  0  0  0  0  0  0
    0.0000    0.0000    0.0000 F   0  0  0  0  0  0  0  0  0  0  0  0
    0.0000    0.0000    0.0000 C   0  0  0  0  0  0  0  0  0  0  0  0
    0.0000    0.0000    0.0000 C   0  0  0  0  0  0  0  0  0  0  0  0
    0.0000    0.0000    0.0000 C   0  0  0  0  0  0  0  0  0  0  0  0
    0.0000    0.0000    0.0000 N   0  0  0  0  0  0  0  0  0  0  0  0
    0.0000    0.0000    0.0000 C   0  0  0  0  0  0  0  0  0  0  0  0
    0.0000    0.0000    0.0000 O   0  0  0  0  0  0  0  0  0  0  0  0
    0.0000    0.0000    0.0000 C   0  0  0  0  0  0  0  0  0  0  0  0
    0.0000    0.0000    0.0000 C   0  0  0  0  0  0  0  0  0  0  0  0
    0.0000    0.0000    0.0000 C   0  0  0  0  0  0  0  0  0  0  0  0
    0.0000    0.0000    0.0000 C   0  0  0  0  0  0  0  0  0  0  0  0
    0.0000    0.0000    0.0000 N   0  0  0  0  0  0  0  0  0  0  0  0
    0.0000    0.0000    0.0000 C   0  0  0  0  0  0  0  0  0  0  0  0
    0.0000    0.0000    0.0000 O   0  0  0  0  0  0  0  0  0  0  0  0
    0.0000    0.0000    0.0000 C   0  0  0  0  0  0  0  0  0  0  0  0
    0.0000    0.0000    0.0000 C   0  0  0  0  0  0  0  0  0  0  0  0
  1  2  1  0
  2  3  1  0
  3  4  1  0
  4  5  1  0
  5  6  1  0
  6  7  2  0
  7  8  1  0
  8  9  2  0
  9 10  1  0
 10 11  2  0
 11 12  1  0
 12 13  1  0
 13 14  1  0
 14 15  2  0
 15 16  1  0
 16 17  2  0
 17 18  1  0
 18 19  1  0
 18 20  2  0
 20 21  1  0
 12 22  2  0
 22 23  1  0
 23 24  2  0
 24 25  1  0
 25 26  1  0
 26 27  2  0
 26 28  1  0
 28 29  1  0
 29 30  1  0
 30 31  1  0
 31 32  1  0
 32 33  1  0
 33 34  2  0
 33 35  1  0
 35 36  2  0
 24  6  1  0
 22  8  1  0
 20 14  1  0
 32 28  1  0
M  END
>  <pIC50>  (223) 
6.3

>  <ChEMBL_ID>  (223) 
CHEMBL571040

>  <document_journal>  (223) 
J. Med. Chem.

>  <bao_endpoint>  (223) 
BAO_0000190

>  <potential_duplicate>  (223) 
False

>  <uo_units>  (223) 
UO_0000065

>  <canonical_smiles>  (223) 
COCCOc1cc2ncnc(Nc3cccc(Cl)c3F)c2cc1NC(=O)[C@@H]4CCCN4C(=O)C=C

>  <parent_molecule_chembl_id>  (223) 
CHEMBL571040

>  <assay_type>  (223) 
B

>  <src_id>  (223) 
1

>  <ligand_efficiency>  (223) 
{u'le': u'0.24', u'bei': u'12.26', u'sei': u'5.96', u'lle': u'2.42'}

>  <standard_flag>  (223) 
True

>  <molecule_chembl_id>  (223) 
CHEMBL571040

>  <target_organism>  (223) 
Homo sapiens

>  <standard_units>  (223) 
nM

>  <record_id>  (223) 
854053

>  <document_chembl_id>  (223) 
CHEMBL1154692

>  <bao_format>  (223) 
BAO_0000357

>  <data_validity_description>  (223) 
None

>  <activity_id>  (223) 
2943670

>  <standard_type>  (223) 
IC50

>  <target_chembl_id>  (223) 
CHEMBL1862

>  <data_validity_comment>  (223) 
None

>  <published_value>  (223) 
0.5

>  <document_year>  (223) 
2009

>  <target_pref_name>  (223) 
Tyrosine-protein kinase ABL

>  <assay_chembl_id>  (223) 
CHEMBL1044075

>  <standard_relation>  (223) 
=

>  <assay_description>  (223) 
Inhibition of Abl1

>  <published_relation>  (223) 
=

>  <standard_value>  (223) 
500

>  <qudt_units>  (223) 
http://www.openphacts.org/units/Nanomolar

>  <target_tax_id>  (223) 
9606

>  <bao_label>  (223) 
single protein format

>  <published_units>  (223) 
microM

>  <pchembl_value>  (223) 
6.3

>  <published_type>  (223) 
IC50

>  <activity_comment>  (223) 
None

$$$$

     RDKit          

 37 41  0  0  0  0  0  0  0  0999 V2000
    0.0000    0.0000    0.0000 O   0  0  0  0  0  0  0  0  0  0  0  0
    0.0000    0.0000    0.0000 C   0  0  0  0  0  0  0  0  0  0  0  0
    0.0000    0.0000    0.0000 N   0  0  0  0  0  0  0  0  0  0  0  0
    0.0000    0.0000    0.0000 C   0  0  0  0  0  0  0  0  0  0  0  0
    0.0000    0.0000    0.0000 C   0  0  0  0  0  0  0  0  0  0  0  0
    0.0000    0.0000    0.0000 C   0  0  0  0  0  0  0  0  0  0  0  0
    0.0000    0.0000    0.0000 C   0  0  0  0  0  0  0  0  0  0  0  0
    0.0000    0.0000    0.0000 C   0  0  0  0  0  0  0  0  0  0  0  0
    0.0000    0.0000    0.0000 C   0  0  0  0  0  0  0  0  0  0  0  0
    0.0000    0.0000    0.0000 C   0  0  0  0  0  0  0  0  0  0  0  0
    0.0000    0.0000    0.0000 C   0  0  0  0  0  0  0  0  0  0  0  0
    0.0000    0.0000    0.0000 N   0  0  0  0  0  0  0  0  0  0  0  0
    0.0000    0.0000    0.0000 C   0  0  0  0  0  0  0  0  0  0  0  0
    0.0000    0.0000    0.0000 N   0  0  0  0  0  0  0  0  0  0  0  0
    0.0000    0.0000    0.0000 N   0  0  0  0  0  0  0  0  0  0  0  0
    0.0000    0.0000    0.0000 C   0  0  0  0  0  0  0  0  0  0  0  0
    0.0000    0.0000    0.0000 C   0  0  0  0  0  0  0  0  0  0  0  0
    0.0000    0.0000    0.0000 C   0  0  0  0  0  0  0  0  0  0  0  0
    0.0000    0.0000    0.0000 N   0  0  0  0  0  0  0  0  0  0  0  0
    0.0000    0.0000    0.0000 C   0  0  0  0  0  0  0  0  0  0  0  0
    0.0000    0.0000    0.0000 C   0  0  0  0  0  0  0  0  0  0  0  0
    0.0000    0.0000    0.0000 C   0  0  0  0  0  0  0  0  0  0  0  0
    0.0000    0.0000    0.0000 C   0  0  0  0  0  0  0  0  0  0  0  0
    0.0000    0.0000    0.0000 C   0  0  0  0  0  0  0  0  0  0  0  0
    0.0000    0.0000    0.0000 C   0  0  0  0  0  0  0  0  0  0  0  0
    0.0000    0.0000    0.0000 O   0  0  0  0  0  0  0  0  0  0  0  0
    0.0000    0.0000    0.0000 C   0  0  0  0  0  0  0  0  0  0  0  0
    0.0000    0.0000    0.0000 C   0  0  0  0  0  0  0  0  0  0  0  0
    0.0000    0.0000    0.0000 C   0  0  0  0  0  0  0  0  0  0  0  0
    0.0000    0.0000    0.0000 C   0  0  0  0  0  0  0  0  0  0  0  0
    0.0000    0.0000    0.0000 C   0  0  0  0  0  0  0  0  0  0  0  0
    0.0000    0.0000    0.0000 C   0  0  0  0  0  0  0  0  0  0  0  0
    0.0000    0.0000    0.0000 C   0  0  0  0  0  0  0  0  0  0  0  0
    0.0000    0.0000    0.0000 N   0  0  0  0  0  0  0  0  0  0  0  0
    0.0000    0.0000    0.0000 C   0  0  0  0  0  0  0  0  0  0  0  0
    0.0000    0.0000    0.0000 C   0  0  0  0  0  0  0  0  0  0  0  0
    0.0000    0.0000    0.0000 O   0  0  0  0  0  1  0  0  0  0  0  0
  1  2  2  0
  2  3  1  0
  2  4  1  0
  4  5  2  0
  6  4  1  0
  5  7  1  0
  8  6  2  0
  7  9  2  0
  9  8  1  0
  8 10  1  0
 10 11  1  0
 12 10  2  0
 11 13  2  0
 14 12  1  0
 13 15  1  0
 14 13  1  0
 16 14  1  0
 15 17  2  0
 18 16  2  0
 16 19  1  0
 17 18  1  0
 19 20  1  0
 20 21  2  0
 22 20  1  0
 21 23  1  0
 24 22  2  0
 23 25  2  0
 25 24  1  0
 24 26  1  0
 27  3  1  0
 28 27  1  0
 27 29  1  0
 30 28  1  0
 29 31  1  0
 32 30  1  0
 30 33  1  0
 34 30  1  0
 31 35  1  0
 31 36  1  0
 31 34  1  0
 34 37  1  0
M  RAD  1  37   2
M  END
>  <pIC50>  (224) 
8.3

>  <ChEMBL_ID>  (224) 
CHEMBL1163016

>  <document_journal>  (224) 
J. Med. Chem.

>  <bao_endpoint>  (224) 
BAO_0000190

>  <potential_duplicate>  (224) 
False

>  <uo_units>  (224) 
UO_0000065

>  <canonical_smiles>  (224) 
CC1(C)CC(CC(C)(C)N1[O])N=C(O)c2cccc(c2)c3cc4nccc(Nc5cccc(O)c5)n4n3

>  <parent_molecule_chembl_id>  (224) 
CHEMBL1163016

>  <assay_type>  (224) 
B

>  <src_id>  (224) 
1

>  <ligand_efficiency>  (224) 
{u'le': u'0.31', u'bei': u'16.62', u'sei': u'7.02', u'lle': u'3.74'}

>  <standard_flag>  (224) 
True

>  <molecule_chembl_id>  (224) 
CHEMBL1163016

>  <target_organism>  (224) 
Homo sapiens

>  <standard_units>  (224) 
nM

>  <record_id>  (224) 
859295

>  <document_chembl_id>  (224) 
CHEMBL1156806

>  <bao_format>  (224) 
BAO_0000357

>  <data_validity_description>  (224) 
None

>  <activity_id>  (224) 
2983205

>  <standard_type>  (224) 
IC50

>  <target_chembl_id>  (224) 
CHEMBL1862

>  <data_validity_comment>  (224) 
None

>  <published_value>  (224) 
0.005

>  <document_year>  (224) 
2010

>  <target_pref_name>  (224) 
Tyrosine-protein kinase ABL

>  <assay_chembl_id>  (224) 
CHEMBL1046241

>  <standard_relation>  (224) 
=

>  <assay_description>  (224) 
Inhibition of Abl 1

>  <published_relation>  (224) 
=

>  <standard_value>  (224) 
5

>  <qudt_units>  (224) 
http://www.openphacts.org/units/Nanomolar

>  <target_tax_id>  (224) 
9606

>  <bao_label>  (224) 
single protein format

>  <published_units>  (224) 
uM

>  <pchembl_value>  (224) 
8.3

>  <published_type>  (224) 
IC50

>  <activity_comment>  (224) 
None

$$$$

     RDKit          

 36 40  0  0  0  0  0  0  0  0999 V2000
    0.0000    0.0000    0.0000 C   0  0  0  0  0  0  0  0  0  0  0  0
    0.0000    0.0000    0.0000 N   0  0  0  0  0  0  0  0  0  0  0  0
    0.0000    0.0000    0.0000 C   0  0  0  0  0  0  0  0  0  0  0  0
    0.0000    0.0000    0.0000 C   0  0  0  0  0  0  0  0  0  0  0  0
    0.0000    0.0000    0.0000 N   0  0  0  0  0  0  0  0  0  0  0  0
    0.0000    0.0000    0.0000 C   0  0  0  0  0  0  0  0  0  0  0  0
    0.0000    0.0000    0.0000 C   0  0  0  0  0  0  0  0  0  0  0  0
    0.0000    0.0000    0.0000 C   0  0  0  0  0  0  0  0  0  0  0  0
    0.0000    0.0000    0.0000 O   0  0  0  0  0  0  0  0  0  0  0  0
    0.0000    0.0000    0.0000 C   0  0  0  0  0  0  0  0  0  0  0  0
    0.0000    0.0000    0.0000 C   0  0  0  0  0  0  0  0  0  0  0  0
    0.0000    0.0000    0.0000 C   0  0  0  0  0  0  0  0  0  0  0  0
    0.0000    0.0000    0.0000 C   0  0  0  0  0  0  0  0  0  0  0  0
    0.0000    0.0000    0.0000 N   0  0  0  0  0  0  0  0  0  0  0  0
    0.0000    0.0000    0.0000 C   0  0  0  0  0  0  0  0  0  0  0  0
    0.0000    0.0000    0.0000 N   0  0  0  0  0  0  0  0  0  0  0  0
    0.0000    0.0000    0.0000 C   0  0  0  0  0  0  0  0  0  0  0  0
    0.0000    0.0000    0.0000 C   0  0  0  0  0  0  0  0  0  0  0  0
    0.0000    0.0000    0.0000 C   0  0  0  0  0  0  0  0  0  0  0  0
    0.0000    0.0000    0.0000 C   0  0  0  0  0  0  0  0  0  0  0  0
    0.0000    0.0000    0.0000 C   0  0  0  0  0  0  0  0  0  0  0  0
    0.0000    0.0000    0.0000 O   0  0  0  0  0  0  0  0  0  0  0  0
    0.0000    0.0000    0.0000 N   0  0  0  0  0  0  0  0  0  0  0  0
    0.0000    0.0000    0.0000 C   0  0  0  0  0  0  0  0  0  0  0  0
    0.0000    0.0000    0.0000 C   0  0  0  0  0  0  0  0  0  0  0  0
    0.0000    0.0000    0.0000 N   0  0  0  0  0  0  0  0  0  0  0  0
    0.0000    0.0000    0.0000 C   0  0  0  0  0  0  0  0  0  0  0  0
    0.0000    0.0000    0.0000 C   0  0  0  0  0  0  0  0  0  0  0  0
    0.0000    0.0000    0.0000 Cl  0  0  0  0  0  0  0  0  0  0  0  0
    0.0000    0.0000    0.0000 C   0  0  0  0  0  0  0  0  0  0  0  0
    0.0000    0.0000    0.0000 C   0  0  0  0  0  0  0  0  0  0  0  0
    0.0000    0.0000    0.0000 C   0  0  0  0  0  0  0  0  0  0  0  0
    0.0000    0.0000    0.0000 C   0  0  0  0  0  0  0  0  0  0  0  0
    0.0000    0.0000    0.0000 Cl  0  0  0  0  0  0  0  0  0  0  0  0
    0.0000    0.0000    0.0000 C   0  0  0  0  0  0  0  0  0  0  0  0
    0.0000    0.0000    0.0000 C   0  0  0  0  0  0  0  0  0  0  0  0
  1  2  1  0
  2  3  1  0
  3  4  1  0
  4  5  1  0
  5  6  1  0
  6  7  1  0
  5  8  1  0
  8  9  2  0
  8 10  1  0
 10 11  2  0
 11 12  1  0
 12 13  2  0
 13 14  1  0
 14 15  1  0
 15 16  2  0
 16 17  1  0
 17 18  2  0
 18 19  1  0
 19 20  2  0
 20 21  1  0
 21 22  2  0
 21 23  1  0
 23 24  1  0
 23 25  1  0
 25 26  2  0
 20 27  1  0
 27 28  2  0
 28 29  1  0
 28 30  1  0
 30 31  2  0
 31 32  1  0
 32 33  2  0
 33 34  1  0
 13 35  1  0
 35 36  2  0
  7  2  1  0
 36 10  1  0
 26 15  1  0
 25 18  1  0
 33 27  1  0
M  END
>  <pIC50>  (225) 
8.44

>  <ChEMBL_ID>  (225) 
CHEMBL565366

>  <document_journal>  (225) 
Bioorg. Med. Chem. Lett.

>  <bao_endpoint>  (225) 
BAO_0000190

>  <potential_duplicate>  (225) 
False

>  <uo_units>  (225) 
UO_0000065

>  <canonical_smiles>  (225) 
CN1CCN(CC1)C(=O)c2ccc(Nc3ncc4C=C(C(=O)N(C)c4n3)c5c(Cl)cccc5Cl)cc2

>  <parent_molecule_chembl_id>  (225) 
CHEMBL565366

>  <assay_type>  (225) 
B

>  <src_id>  (225) 
1

>  <ligand_efficiency>  (225) 
{u'le': u'0.32', u'bei': u'16.13', u'sei': u'10.34', u'lle': u'3.97'}

>  <standard_flag>  (225) 
True

>  <molecule_chembl_id>  (225) 
CHEMBL565366

>  <target_organism>  (225) 
Homo sapiens

>  <standard_units>  (225) 
nM

>  <record_id>  (225) 
863272

>  <document_chembl_id>  (225) 
CHEMBL1156739

>  <bao_format>  (225) 
BAO_0000357

>  <data_validity_description>  (225) 
None

>  <activity_id>  (225) 
2988738

>  <standard_type>  (225) 
IC50

>  <target_chembl_id>  (225) 
CHEMBL1862

>  <data_validity_comment>  (225) 
None

>  <published_value>  (225) 
3.6

>  <document_year>  (225) 
2009

>  <target_pref_name>  (225) 
Tyrosine-protein kinase ABL

>  <assay_chembl_id>  (225) 
CHEMBL1050608

>  <standard_relation>  (225) 
=

>  <assay_description>  (225) 
Inhibition of human recombinant Abl

>  <published_relation>  (225) 
=

>  <standard_value>  (225) 
3.6

>  <qudt_units>  (225) 
http://www.openphacts.org/units/Nanomolar

>  <target_tax_id>  (225) 
9606

>  <bao_label>  (225) 
single protein format

>  <published_units>  (225) 
nM

>  <pchembl_value>  (225) 
8.44

>  <published_type>  (225) 
IC50

>  <activity_comment>  (225) 
None

$$$$

     RDKit          

 40 43  0  0  0  0  0  0  0  0999 V2000
    0.0000    0.0000    0.0000 C   0  0  0  0  0  0  0  0  0  0  0  0
    0.0000    0.0000    0.0000 N   0  0  0  0  0  0  0  0  0  0  0  0
    0.0000    0.0000    0.0000 C   0  0  0  0  0  0  0  0  0  0  0  0
    0.0000    0.0000    0.0000 O   0  0  0  0  0  0  0  0  0  0  0  0
    0.0000    0.0000    0.0000 C   0  0  0  0  0  0  0  0  0  0  0  0
    0.0000    0.0000    0.0000 C   0  0  0  0  0  0  0  0  0  0  0  0
    0.0000    0.0000    0.0000 C   0  0  0  0  0  0  0  0  0  0  0  0
    0.0000    0.0000    0.0000 C   0  0  0  0  0  0  0  0  0  0  0  0
    0.0000    0.0000    0.0000 N   0  0  0  0  0  0  0  0  0  0  0  0
    0.0000    0.0000    0.0000 C   0  0  0  0  0  0  0  0  0  0  0  0
    0.0000    0.0000    0.0000 N   0  0  0  0  0  0  0  0  0  0  0  0
    0.0000    0.0000    0.0000 C   0  0  0  0  0  0  0  0  0  0  0  0
    0.0000    0.0000    0.0000 C   0  0  0  0  0  0  0  0  0  0  0  0
    0.0000    0.0000    0.0000 C   0  0  0  0  0  0  0  0  0  0  0  0
    0.0000    0.0000    0.0000 C   0  0  0  0  0  0  0  0  0  0  0  0
    0.0000    0.0000    0.0000 N   0  0  0  0  0  0  0  0  0  0  0  0
    0.0000    0.0000    0.0000 C   0  0  0  0  0  0  0  0  0  0  0  0
    0.0000    0.0000    0.0000 O   0  0  0  0  0  0  0  0  0  0  0  0
    0.0000    0.0000    0.0000 C   0  0  0  0  0  0  0  0  0  0  0  0
    0.0000    0.0000    0.0000 C   0  0  0  0  0  0  0  0  0  0  0  0
    0.0000    0.0000    0.0000 N   0  0  0  0  0  0  0  0  0  0  0  0
    0.0000    0.0000    0.0000 C   0  0  0  0  0  0  0  0  0  0  0  0
    0.0000    0.0000    0.0000 O   0  0  0  0  0  0  0  0  0  0  0  0
    0.0000    0.0000    0.0000 O   0  0  0  0  0  0  0  0  0  0  0  0
    0.0000    0.0000    0.0000 C   0  0  0  0  0  0  0  0  0  0  0  0
    0.0000    0.0000    0.0000 C   0  0  0  0  0  0  0  0  0  0  0  0
    0.0000    0.0000    0.0000 C   0  0  0  0  0  0  0  0  0  0  0  0
    0.0000    0.0000    0.0000 C   0  0  0  0  0  0  0  0  0  0  0  0
    0.0000    0.0000    0.0000 C   0  0  0  0  0  0  0  0  0  0  0  0
    0.0000    0.0000    0.0000 C   0  0  0  0  0  0  0  0  0  0  0  0
    0.0000    0.0000    0.0000 N   0  0  0  0  0  0  0  0  0  0  0  0
    0.0000    0.0000    0.0000 C   0  0  0  0  0  0  0  0  0  0  0  0
    0.0000    0.0000    0.0000 C   0  0  0  0  0  0  0  0  0  0  0  0
    0.0000    0.0000    0.0000 C   0  0  0  0  0  0  0  0  0  0  0  0
    0.0000    0.0000    0.0000 Cl  0  0  0  0  0  0  0  0  0  0  0  0
    0.0000    0.0000    0.0000 C   0  0  0  0  0  0  0  0  0  0  0  0
    0.0000    0.0000    0.0000 C   0  0  0  0  0  0  0  0  0  0  0  0
    0.0000    0.0000    0.0000 C   0  0  0  0  0  0  0  0  0  0  0  0
    0.0000    0.0000    0.0000 C   0  0  0  0  0  0  0  0  0  0  0  0
    0.0000    0.0000    0.0000 Cl  0  0  0  0  0  0  0  0  0  0  0  0
  1  2  1  0
  2  3  1  0
  3  4  2  0
  3  5  1  0
  5  6  2  0
  6  7  1  0
  7  8  2  0
  8  9  1  0
  9 10  2  0
 10 11  1  0
 11 12  1  0
 12 13  2  0
 13 14  1  0
 14 15  2  0
 15 16  1  0
 16 17  1  0
 17 18  2  0
 17 19  1  0
 19 20  1  0
 20 21  1  0
 21 22  1  0
 22 23  2  0
 22 24  1  0
 24 25  1  0
 25 26  1  0
 25 27  1  0
 25 28  1  0
 15 29  1  0
 29 30  2  0
 10 31  1  0
 31 32  2  0
  5 33  1  0
 33 34  2  0
 34 35  1  0
 34 36  1  0
 36 37  2  0
 37 38  1  0
 38 39  2  0
 39 40  1  0
 32  2  1  0
 32  7  1  0
 30 12  1  0
 39 33  1  0
M  END
>  <pIC50>  (226) 
7.92

>  <ChEMBL_ID>  (226) 
CHEMBL565609

>  <document_journal>  (226) 
Bioorg. Med. Chem. Lett.

>  <bao_endpoint>  (226) 
BAO_0000190

>  <potential_duplicate>  (226) 
False

>  <uo_units>  (226) 
UO_0000065

>  <canonical_smiles>  (226) 
CN1C(=O)C(=Cc2cnc(Nc3ccc(NC(=O)CCNC(=O)OC(C)(C)C)cc3)nc12)c4c(Cl)cccc4Cl

>  <parent_molecule_chembl_id>  (226) 
CHEMBL565609

>  <assay_type>  (226) 
B

>  <src_id>  (226) 
1

>  <ligand_efficiency>  (226) 
{u'le': u'0.27', u'bei': u'13.58', u'sei': u'6.31', u'lle': u'2.82'}

>  <standard_flag>  (226) 
True

>  <molecule_chembl_id>  (226) 
CHEMBL565609

>  <target_organism>  (226) 
Homo sapiens

>  <standard_units>  (226) 
nM

>  <record_id>  (226) 
863179

>  <document_chembl_id>  (226) 
CHEMBL1156739

>  <bao_format>  (226) 
BAO_0000357

>  <data_validity_description>  (226) 
None

>  <activity_id>  (226) 
2988739

>  <standard_type>  (226) 
IC50

>  <target_chembl_id>  (226) 
CHEMBL1862

>  <data_validity_comment>  (226) 
None

>  <published_value>  (226) 
12

>  <document_year>  (226) 
2009

>  <target_pref_name>  (226) 
Tyrosine-protein kinase ABL

>  <assay_chembl_id>  (226) 
CHEMBL1050608

>  <standard_relation>  (226) 
=

>  <assay_description>  (226) 
Inhibition of human recombinant Abl

>  <published_relation>  (226) 
=

>  <standard_value>  (226) 
12

>  <qudt_units>  (226) 
http://www.openphacts.org/units/Nanomolar

>  <target_tax_id>  (226) 
9606

>  <bao_label>  (226) 
single protein format

>  <published_units>  (226) 
nM

>  <pchembl_value>  (226) 
7.92

>  <published_type>  (226) 
IC50

>  <activity_comment>  (226) 
None

$$$$

     RDKit          

 33 36  0  0  0  0  0  0  0  0999 V2000
    0.0000    0.0000    0.0000 C   0  0  0  0  0  0  0  0  0  0  0  0
    0.0000    0.0000    0.0000 N   0  0  0  0  0  0  0  0  0  0  0  0
    0.0000    0.0000    0.0000 C   0  0  0  0  0  0  0  0  0  0  0  0
    0.0000    0.0000    0.0000 O   0  0  0  0  0  0  0  0  0  0  0  0
    0.0000    0.0000    0.0000 C   0  0  0  0  0  0  0  0  0  0  0  0
    0.0000    0.0000    0.0000 C   0  0  0  0  0  0  0  0  0  0  0  0
    0.0000    0.0000    0.0000 C   0  0  0  0  0  0  0  0  0  0  0  0
    0.0000    0.0000    0.0000 C   0  0  0  0  0  0  0  0  0  0  0  0
    0.0000    0.0000    0.0000 N   0  0  0  0  0  0  0  0  0  0  0  0
    0.0000    0.0000    0.0000 C   0  0  0  0  0  0  0  0  0  0  0  0
    0.0000    0.0000    0.0000 N   0  0  0  0  0  0  0  0  0  0  0  0
    0.0000    0.0000    0.0000 C   0  0  0  0  0  0  0  0  0  0  0  0
    0.0000    0.0000    0.0000 C   0  0  0  0  0  0  0  0  0  0  0  0
    0.0000    0.0000    0.0000 C   0  0  0  0  0  0  0  0  0  0  0  0
    0.0000    0.0000    0.0000 C   0  0  0  0  0  0  0  0  0  0  0  0
    0.0000    0.0000    0.0000 N   0  0  0  0  0  0  0  0  0  0  0  0
    0.0000    0.0000    0.0000 C   0  0  0  0  0  0  0  0  0  0  0  0
    0.0000    0.0000    0.0000 C   0  0  0  0  0  0  0  0  0  0  0  0
    0.0000    0.0000    0.0000 O   0  0  0  0  0  0  0  0  0  0  0  0
    0.0000    0.0000    0.0000 C   0  0  0  0  0  0  0  0  0  0  0  0
    0.0000    0.0000    0.0000 O   0  0  0  0  0  0  0  0  0  0  0  0
    0.0000    0.0000    0.0000 C   0  0  0  0  0  0  0  0  0  0  0  0
    0.0000    0.0000    0.0000 C   0  0  0  0  0  0  0  0  0  0  0  0
    0.0000    0.0000    0.0000 N   0  0  0  0  0  0  0  0  0  0  0  0
    0.0000    0.0000    0.0000 C   0  0  0  0  0  0  0  0  0  0  0  0
    0.0000    0.0000    0.0000 C   0  0  0  0  0  0  0  0  0  0  0  0
    0.0000    0.0000    0.0000 C   0  0  0  0  0  0  0  0  0  0  0  0
    0.0000    0.0000    0.0000 Cl  0  0  0  0  0  0  0  0  0  0  0  0
    0.0000    0.0000    0.0000 C   0  0  0  0  0  0  0  0  0  0  0  0
    0.0000    0.0000    0.0000 C   0  0  0  0  0  0  0  0  0  0  0  0
    0.0000    0.0000    0.0000 C   0  0  0  0  0  0  0  0  0  0  0  0
    0.0000    0.0000    0.0000 C   0  0  0  0  0  0  0  0  0  0  0  0
    0.0000    0.0000    0.0000 Cl  0  0  0  0  0  0  0  0  0  0  0  0
  1  2  1  0
  2  3  1  0
  3  4  2  0
  3  5  1  0
  5  6  2  0
  6  7  1  0
  7  8  2  0
  8  9  1  0
  9 10  2  0
 10 11  1  0
 11 12  1  0
 12 13  2  0
 13 14  1  0
 14 15  2  0
 15 16  1  0
 16 17  1  0
 17 18  1  0
 18 19  1  0
 18 20  1  0
 20 21  1  0
 15 22  1  0
 22 23  2  0
 10 24  1  0
 24 25  2  0
  5 26  1  0
 26 27  2  0
 27 28  1  0
 27 29  1  0
 29 30  2  0
 30 31  1  0
 31 32  2  0
 32 33  1  0
 25  2  1  0
 25  7  1  0
 23 12  1  0
 32 26  1  0
M  END
>  <pIC50>  (227) 
8.64

>  <ChEMBL_ID>  (227) 
CHEMBL567068

>  <document_journal>  (227) 
Bioorg. Med. Chem. Lett.

>  <bao_endpoint>  (227) 
BAO_0000190

>  <potential_duplicate>  (227) 
False

>  <uo_units>  (227) 
UO_0000065

>  <canonical_smiles>  (227) 
CN1C(=O)C(=Cc2cnc(Nc3ccc(NCC(O)CO)cc3)nc12)c4c(Cl)cccc4Cl

>  <parent_molecule_chembl_id>  (227) 
CHEMBL567068

>  <assay_type>  (227) 
B

>  <src_id>  (227) 
1

>  <ligand_efficiency>  (227) 
{u'le': u'0.36', u'bei': u'17.76', u'sei': u'7.81', u'lle': u'4.78'}

>  <standard_flag>  (227) 
True

>  <molecule_chembl_id>  (227) 
CHEMBL567068

>  <target_organism>  (227) 
Homo sapiens

>  <standard_units>  (227) 
nM

>  <record_id>  (227) 
863178

>  <document_chembl_id>  (227) 
CHEMBL1156739

>  <bao_format>  (227) 
BAO_0000357

>  <data_validity_description>  (227) 
None

>  <activity_id>  (227) 
2988740

>  <standard_type>  (227) 
IC50

>  <target_chembl_id>  (227) 
CHEMBL1862

>  <data_validity_comment>  (227) 
None

>  <published_value>  (227) 
2.3

>  <document_year>  (227) 
2009

>  <target_pref_name>  (227) 
Tyrosine-protein kinase ABL

>  <assay_chembl_id>  (227) 
CHEMBL1050608

>  <standard_relation>  (227) 
=

>  <assay_description>  (227) 
Inhibition of human recombinant Abl

>  <published_relation>  (227) 
=

>  <standard_value>  (227) 
2.3

>  <qudt_units>  (227) 
http://www.openphacts.org/units/Nanomolar

>  <target_tax_id>  (227) 
9606

>  <bao_label>  (227) 
single protein format

>  <published_units>  (227) 
nM

>  <pchembl_value>  (227) 
8.64

>  <published_type>  (227) 
IC50

>  <activity_comment>  (227) 
None

$$$$

     RDKit          

 33 36  0  0  0  0  0  0  0  0999 V2000
    0.0000    0.0000    0.0000 C   0  0  0  0  0  0  0  0  0  0  0  0
    0.0000    0.0000    0.0000 N   0  0  0  0  0  0  0  0  0  0  0  0
    0.0000    0.0000    0.0000 C   0  0  0  0  0  0  0  0  0  0  0  0
    0.0000    0.0000    0.0000 O   0  0  0  0  0  0  0  0  0  0  0  0
    0.0000    0.0000    0.0000 C   0  0  0  0  0  0  0  0  0  0  0  0
    0.0000    0.0000    0.0000 C   0  0  0  0  0  0  0  0  0  0  0  0
    0.0000    0.0000    0.0000 C   0  0  0  0  0  0  0  0  0  0  0  0
    0.0000    0.0000    0.0000 C   0  0  0  0  0  0  0  0  0  0  0  0
    0.0000    0.0000    0.0000 N   0  0  0  0  0  0  0  0  0  0  0  0
    0.0000    0.0000    0.0000 C   0  0  0  0  0  0  0  0  0  0  0  0
    0.0000    0.0000    0.0000 N   0  0  0  0  0  0  0  0  0  0  0  0
    0.0000    0.0000    0.0000 C   0  0  0  0  0  0  0  0  0  0  0  0
    0.0000    0.0000    0.0000 C   0  0  0  0  0  0  0  0  0  0  0  0
    0.0000    0.0000    0.0000 C   0  0  0  0  0  0  0  0  0  0  0  0
    0.0000    0.0000    0.0000 C   0  0  0  0  0  0  0  0  0  0  0  0
    0.0000    0.0000    0.0000 N   0  0  0  0  0  0  0  0  0  0  0  0
    0.0000    0.0000    0.0000 C   0  0  0  0  0  0  0  0  0  0  0  0
    0.0000    0.0000    0.0000 O   0  0  0  0  0  0  0  0  0  0  0  0
    0.0000    0.0000    0.0000 C   0  0  0  0  0  0  0  0  0  0  0  0
    0.0000    0.0000    0.0000 C   0  0  0  0  0  0  0  0  0  0  0  0
    0.0000    0.0000    0.0000 N   0  0  0  0  0  0  0  0  0  0  0  0
    0.0000    0.0000    0.0000 C   0  0  0  0  0  0  0  0  0  0  0  0
    0.0000    0.0000    0.0000 C   0  0  0  0  0  0  0  0  0  0  0  0
    0.0000    0.0000    0.0000 N   0  0  0  0  0  0  0  0  0  0  0  0
    0.0000    0.0000    0.0000 C   0  0  0  0  0  0  0  0  0  0  0  0
    0.0000    0.0000    0.0000 C   0  0  0  0  0  0  0  0  0  0  0  0
    0.0000    0.0000    0.0000 C   0  0  0  0  0  0  0  0  0  0  0  0
    0.0000    0.0000    0.0000 Cl  0  0  0  0  0  0  0  0  0  0  0  0
    0.0000    0.0000    0.0000 C   0  0  0  0  0  0  0  0  0  0  0  0
    0.0000    0.0000    0.0000 C   0  0  0  0  0  0  0  0  0  0  0  0
    0.0000    0.0000    0.0000 C   0  0  0  0  0  0  0  0  0  0  0  0
    0.0000    0.0000    0.0000 C   0  0  0  0  0  0  0  0  0  0  0  0
    0.0000    0.0000    0.0000 Cl  0  0  0  0  0  0  0  0  0  0  0  0
  1  2  1  0
  2  3  1  0
  3  4  2  0
  3  5  1  0
  5  6  2  0
  6  7  1  0
  7  8  2  0
  8  9  1  0
  9 10  2  0
 10 11  1  0
 11 12  1  0
 12 13  2  0
 13 14  1  0
 14 15  2  0
 15 16  1  0
 16 17  1  0
 17 18  2  0
 17 19  1  0
 19 20  1  0
 20 21  1  0
 15 22  1  0
 22 23  2  0
 10 24  1  0
 24 25  2  0
  5 26  1  0
 26 27  2  0
 27 28  1  0
 27 29  1  0
 29 30  2  0
 30 31  1  0
 31 32  2  0
 32 33  1  0
 25  2  1  0
 25  7  1  0
 23 12  1  0
 32 26  1  0
M  END
>  <pIC50>  (228) 
8.33

>  <ChEMBL_ID>  (228) 
CHEMBL566635

>  <document_journal>  (228) 
Bioorg. Med. Chem. Lett.

>  <bao_endpoint>  (228) 
BAO_0000190

>  <potential_duplicate>  (228) 
False

>  <uo_units>  (228) 
UO_0000065

>  <canonical_smiles>  (228) 
CN1C(=O)C(=Cc2cnc(Nc3ccc(NC(=O)CCN)cc3)nc12)c4c(Cl)cccc4Cl

>  <parent_molecule_chembl_id>  (228) 
CHEMBL566635

>  <assay_type>  (228) 
B

>  <src_id>  (228) 
1

>  <ligand_efficiency>  (228) 
{u'le': u'0.34', u'bei': u'17.23', u'sei': u'7.35', u'lle': u'4.83'}

>  <standard_flag>  (228) 
True

>  <molecule_chembl_id>  (228) 
CHEMBL566635

>  <target_organism>  (228) 
Homo sapiens

>  <standard_units>  (228) 
nM

>  <record_id>  (228) 
863167

>  <document_chembl_id>  (228) 
CHEMBL1156739

>  <bao_format>  (228) 
BAO_0000357

>  <data_validity_description>  (228) 
None

>  <activity_id>  (228) 
2988741

>  <standard_type>  (228) 
IC50

>  <target_chembl_id>  (228) 
CHEMBL1862

>  <data_validity_comment>  (228) 
None

>  <published_value>  (228) 
4.7

>  <document_year>  (228) 
2009

>  <target_pref_name>  (228) 
Tyrosine-protein kinase ABL

>  <assay_chembl_id>  (228) 
CHEMBL1050608

>  <standard_relation>  (228) 
=

>  <assay_description>  (228) 
Inhibition of human recombinant Abl

>  <published_relation>  (228) 
=

>  <standard_value>  (228) 
4.7

>  <qudt_units>  (228) 
http://www.openphacts.org/units/Nanomolar

>  <target_tax_id>  (228) 
9606

>  <bao_label>  (228) 
single protein format

>  <published_units>  (228) 
nM

>  <pchembl_value>  (228) 
8.33

>  <published_type>  (228) 
IC50

>  <activity_comment>  (228) 
None

$$$$

     RDKit          

 29 32  0  0  0  0  0  0  0  0999 V2000
    0.0000    0.0000    0.0000 C   0  0  0  0  0  0  0  0  0  0  0  0
    0.0000    0.0000    0.0000 N   0  0  0  0  0  0  0  0  0  0  0  0
    0.0000    0.0000    0.0000 C   0  0  0  0  0  0  0  0  0  0  0  0
    0.0000    0.0000    0.0000 O   0  0  0  0  0  0  0  0  0  0  0  0
    0.0000    0.0000    0.0000 C   0  0  0  0  0  0  0  0  0  0  0  0
    0.0000    0.0000    0.0000 C   0  0  0  0  0  0  0  0  0  0  0  0
    0.0000    0.0000    0.0000 C   0  0  0  0  0  0  0  0  0  0  0  0
    0.0000    0.0000    0.0000 C   0  0  0  0  0  0  0  0  0  0  0  0
    0.0000    0.0000    0.0000 N   0  0  0  0  0  0  0  0  0  0  0  0
    0.0000    0.0000    0.0000 C   0  0  0  0  0  0  0  0  0  0  0  0
    0.0000    0.0000    0.0000 N   0  0  0  0  0  0  0  0  0  0  0  0
    0.0000    0.0000    0.0000 C   0  0  0  0  0  0  0  0  0  0  0  0
    0.0000    0.0000    0.0000 C   0  0  0  0  0  0  0  0  0  0  0  0
    0.0000    0.0000    0.0000 C   0  0  0  0  0  0  0  0  0  0  0  0
    0.0000    0.0000    0.0000 C   0  0  0  0  0  0  0  0  0  0  0  0
    0.0000    0.0000    0.0000 C   0  0  0  0  0  0  0  0  0  0  0  0
    0.0000    0.0000    0.0000 C   0  0  0  0  0  0  0  0  0  0  0  0
    0.0000    0.0000    0.0000 O   0  0  0  0  0  0  0  0  0  0  0  0
    0.0000    0.0000    0.0000 C   0  0  0  0  0  0  0  0  0  0  0  0
    0.0000    0.0000    0.0000 N   0  0  0  0  0  0  0  0  0  0  0  0
    0.0000    0.0000    0.0000 C   0  0  0  0  0  0  0  0  0  0  0  0
    0.0000    0.0000    0.0000 C   0  0  0  0  0  0  0  0  0  0  0  0
    0.0000    0.0000    0.0000 C   0  0  0  0  0  0  0  0  0  0  0  0
    0.0000    0.0000    0.0000 Cl  0  0  0  0  0  0  0  0  0  0  0  0
    0.0000    0.0000    0.0000 C   0  0  0  0  0  0  0  0  0  0  0  0
    0.0000    0.0000    0.0000 C   0  0  0  0  0  0  0  0  0  0  0  0
    0.0000    0.0000    0.0000 C   0  0  0  0  0  0  0  0  0  0  0  0
    0.0000    0.0000    0.0000 C   0  0  0  0  0  0  0  0  0  0  0  0
    0.0000    0.0000    0.0000 Cl  0  0  0  0  0  0  0  0  0  0  0  0
  1  2  1  0
  2  3  1  0
  3  4  2  0
  3  5  1  0
  5  6  2  0
  6  7  1  0
  7  8  2  0
  8  9  1  0
  9 10  2  0
 10 11  1  0
 11 12  1  0
 12 13  2  0
 13 14  1  0
 14 15  2  0
 15 16  1  0
 16 17  1  0
 17 18  1  0
 16 19  2  0
 10 20  1  0
 20 21  2  0
  5 22  1  0
 22 23  2  0
 23 24  1  0
 23 25  1  0
 25 26  2  0
 26 27  1  0
 27 28  2  0
 28 29  1  0
 21  2  1  0
 21  7  1  0
 19 12  1  0
 28 22  1  0
M  END
>  <pIC50>  (229) 
8.55

>  <ChEMBL_ID>  (229) 
CHEMBL327127

>  <document_journal>  (229) 
Bioorg. Med. Chem. Lett.

>  <bao_endpoint>  (229) 
BAO_0000190

>  <potential_duplicate>  (229) 
False

>  <uo_units>  (229) 
UO_0000065

>  <canonical_smiles>  (229) 
CN1C(=O)C(=Cc2cnc(Nc3cccc(CO)c3)nc12)c4c(Cl)cccc4Cl

>  <parent_molecule_chembl_id>  (229) 
CHEMBL327127

>  <assay_type>  (229) 
B

>  <src_id>  (229) 
1

>  <ligand_efficiency>  (229) 
{u'le': u'0.4', u'bei': u'20.02', u'sei': u'10.92', u'lle': u'4.06'}

>  <standard_flag>  (229) 
True

>  <molecule_chembl_id>  (229) 
CHEMBL327127

>  <target_organism>  (229) 
Homo sapiens

>  <standard_units>  (229) 
nM

>  <record_id>  (229) 
863177

>  <document_chembl_id>  (229) 
CHEMBL1156739

>  <bao_format>  (229) 
BAO_0000357

>  <data_validity_description>  (229) 
None

>  <activity_id>  (229) 
2988742

>  <standard_type>  (229) 
IC50

>  <target_chembl_id>  (229) 
CHEMBL1862

>  <data_validity_comment>  (229) 
None

>  <published_value>  (229) 
2.8

>  <document_year>  (229) 
2009

>  <target_pref_name>  (229) 
Tyrosine-protein kinase ABL

>  <assay_chembl_id>  (229) 
CHEMBL1050608

>  <standard_relation>  (229) 
=

>  <assay_description>  (229) 
Inhibition of human recombinant Abl

>  <published_relation>  (229) 
=

>  <standard_value>  (229) 
2.8

>  <qudt_units>  (229) 
http://www.openphacts.org/units/Nanomolar

>  <target_tax_id>  (229) 
9606

>  <bao_label>  (229) 
single protein format

>  <published_units>  (229) 
nM

>  <pchembl_value>  (229) 
8.55

>  <published_type>  (229) 
IC50

>  <activity_comment>  (229) 
None

$$$$

     RDKit          

 29 32  0  0  0  0  0  0  0  0999 V2000
    0.0000    0.0000    0.0000 C   0  0  0  0  0  0  0  0  0  0  0  0
    0.0000    0.0000    0.0000 C   0  0  0  0  0  0  0  0  0  0  0  0
    0.0000    0.0000    0.0000 C   0  0  0  0  0  0  0  0  0  0  0  0
    0.0000    0.0000    0.0000 C   0  0  0  0  0  0  0  0  0  0  0  0
    0.0000    0.0000    0.0000 C   0  0  0  0  0  0  0  0  0  0  0  0
    0.0000    0.0000    0.0000 C   0  0  0  0  0  0  0  0  0  0  0  0
    0.0000    0.0000    0.0000 C   0  0  0  0  0  0  0  0  0  0  0  0
    0.0000    0.0000    0.0000 N   0  0  0  0  0  0  0  0  0  0  0  0
    0.0000    0.0000    0.0000 C   0  0  0  0  0  0  0  0  0  0  0  0
    0.0000    0.0000    0.0000 N   0  0  0  0  0  0  0  0  0  0  0  0
    0.0000    0.0000    0.0000 C   0  0  0  0  0  0  0  0  0  0  0  0
    0.0000    0.0000    0.0000 C   0  0  0  0  0  0  0  0  0  0  0  0
    0.0000    0.0000    0.0000 C   0  0  0  0  0  0  0  0  0  0  0  0
    0.0000    0.0000    0.0000 C   0  0  0  0  0  0  0  0  0  0  0  0
    0.0000    0.0000    0.0000 C   0  0  0  0  0  0  0  0  0  0  0  0
    0.0000    0.0000    0.0000 O   0  0  0  0  0  0  0  0  0  0  0  0
    0.0000    0.0000    0.0000 N   0  0  0  0  0  0  0  0  0  0  0  0
    0.0000    0.0000    0.0000 C   0  0  0  0  0  0  0  0  0  0  0  0
    0.0000    0.0000    0.0000 C   0  0  0  0  0  0  0  0  0  0  0  0
    0.0000    0.0000    0.0000 N   0  0  0  0  0  0  0  0  0  0  0  0
    0.0000    0.0000    0.0000 C   0  0  0  0  0  0  0  0  0  0  0  0
    0.0000    0.0000    0.0000 C   0  0  0  0  0  0  0  0  0  0  0  0
    0.0000    0.0000    0.0000 Cl  0  0  0  0  0  0  0  0  0  0  0  0
    0.0000    0.0000    0.0000 C   0  0  0  0  0  0  0  0  0  0  0  0
    0.0000    0.0000    0.0000 C   0  0  0  0  0  0  0  0  0  0  0  0
    0.0000    0.0000    0.0000 C   0  0  0  0  0  0  0  0  0  0  0  0
    0.0000    0.0000    0.0000 C   0  0  0  0  0  0  0  0  0  0  0  0
    0.0000    0.0000    0.0000 Cl  0  0  0  0  0  0  0  0  0  0  0  0
    0.0000    0.0000    0.0000 C   0  0  0  0  0  0  0  0  0  0  0  0
  1  2  1  0
  2  3  1  0
  3  4  2  0
  4  5  1  0
  5  6  2  0
  6  7  1  0
  7  8  1  0
  8  9  1  0
  9 10  2  0
 10 11  1  0
 11 12  2  0
 12 13  1  0
 13 14  2  0
 14 15  1  0
 15 16  2  0
 15 17  1  0
 17 18  1  0
 17 19  1  0
 19 20  2  0
 14 21  1  0
 21 22  2  0
 22 23  1  0
 22 24  1  0
 24 25  2  0
 25 26  1  0
 26 27  2  0
 27 28  1  0
  7 29  2  0
 29  3  1  0
 20  9  1  0
 19 12  1  0
 27 21  1  0
M  END
>  <pIC50>  (230) 
7.66

>  <ChEMBL_ID>  (230) 
CHEMBL565372

>  <document_journal>  (230) 
Bioorg. Med. Chem. Lett.

>  <bao_endpoint>  (230) 
BAO_0000190

>  <potential_duplicate>  (230) 
False

>  <uo_units>  (230) 
UO_0000065

>  <canonical_smiles>  (230) 
CCc1cccc(Nc2ncc3C=C(C(=O)N(C)c3n2)c4c(Cl)cccc4Cl)c1

>  <parent_molecule_chembl_id>  (230) 
CHEMBL565372

>  <assay_type>  (230) 
B

>  <src_id>  (230) 
1

>  <ligand_efficiency>  (230) 
{u'le': u'0.36', u'bei': u'18', u'sei': u'13.18', u'lle': u'1.62'}

>  <standard_flag>  (230) 
True

>  <molecule_chembl_id>  (230) 
CHEMBL565372

>  <target_organism>  (230) 
Homo sapiens

>  <standard_units>  (230) 
nM

>  <record_id>  (230) 
863194

>  <document_chembl_id>  (230) 
CHEMBL1156739

>  <bao_format>  (230) 
BAO_0000357

>  <data_validity_description>  (230) 
None

>  <activity_id>  (230) 
2988743

>  <standard_type>  (230) 
IC50

>  <target_chembl_id>  (230) 
CHEMBL1862

>  <data_validity_comment>  (230) 
None

>  <published_value>  (230) 
22

>  <document_year>  (230) 
2009

>  <target_pref_name>  (230) 
Tyrosine-protein kinase ABL

>  <assay_chembl_id>  (230) 
CHEMBL1050608

>  <standard_relation>  (230) 
=

>  <assay_description>  (230) 
Inhibition of human recombinant Abl

>  <published_relation>  (230) 
=

>  <standard_value>  (230) 
22

>  <qudt_units>  (230) 
http://www.openphacts.org/units/Nanomolar

>  <target_tax_id>  (230) 
9606

>  <bao_label>  (230) 
single protein format

>  <published_units>  (230) 
nM

>  <pchembl_value>  (230) 
7.66

>  <published_type>  (230) 
IC50

>  <activity_comment>  (230) 
None

$$$$

     RDKit          

 34 37  0  0  0  0  0  0  0  0999 V2000
    0.0000    0.0000    0.0000 C   0  0  0  0  0  0  0  0  0  0  0  0
    0.0000    0.0000    0.0000 N   0  0  0  0  0  0  0  0  0  0  0  0
    0.0000    0.0000    0.0000 C   0  0  0  0  0  0  0  0  0  0  0  0
    0.0000    0.0000    0.0000 O   0  0  0  0  0  0  0  0  0  0  0  0
    0.0000    0.0000    0.0000 C   0  0  0  0  0  0  0  0  0  0  0  0
    0.0000    0.0000    0.0000 C   0  0  0  0  0  0  0  0  0  0  0  0
    0.0000    0.0000    0.0000 C   0  0  0  0  0  0  0  0  0  0  0  0
    0.0000    0.0000    0.0000 C   0  0  0  0  0  0  0  0  0  0  0  0
    0.0000    0.0000    0.0000 N   0  0  0  0  0  0  0  0  0  0  0  0
    0.0000    0.0000    0.0000 C   0  0  0  0  0  0  0  0  0  0  0  0
    0.0000    0.0000    0.0000 N   0  0  0  0  0  0  0  0  0  0  0  0
    0.0000    0.0000    0.0000 C   0  0  0  0  0  0  0  0  0  0  0  0
    0.0000    0.0000    0.0000 C   0  0  0  0  0  0  0  0  0  0  0  0
    0.0000    0.0000    0.0000 C   0  0  0  0  0  0  0  0  0  0  0  0
    0.0000    0.0000    0.0000 C   0  0  0  0  0  0  0  0  0  0  0  0
    0.0000    0.0000    0.0000 C   0  0  0  0  0  0  0  0  0  0  0  0
    0.0000    0.0000    0.0000 C   0  0  0  0  0  0  0  0  0  0  0  0
    0.0000    0.0000    0.0000 O   0  0  0  0  0  0  0  0  0  0  0  0
    0.0000    0.0000    0.0000 C   0  0  0  0  0  0  0  0  0  0  0  0
    0.0000    0.0000    0.0000 C   0  0  0  0  0  0  0  0  0  0  0  0
    0.0000    0.0000    0.0000 O   0  0  0  0  0  0  0  0  0  0  0  0
    0.0000    0.0000    0.0000 C   0  0  0  0  0  0  0  0  0  0  0  0
    0.0000    0.0000    0.0000 O   0  0  0  0  0  0  0  0  0  0  0  0
    0.0000    0.0000    0.0000 C   0  0  0  0  0  0  0  0  0  0  0  0
    0.0000    0.0000    0.0000 N   0  0  0  0  0  0  0  0  0  0  0  0
    0.0000    0.0000    0.0000 C   0  0  0  0  0  0  0  0  0  0  0  0
    0.0000    0.0000    0.0000 C   0  0  0  0  0  0  0  0  0  0  0  0
    0.0000    0.0000    0.0000 C   0  0  0  0  0  0  0  0  0  0  0  0
    0.0000    0.0000    0.0000 Cl  0  0  0  0  0  0  0  0  0  0  0  0
    0.0000    0.0000    0.0000 C   0  0  0  0  0  0  0  0  0  0  0  0
    0.0000    0.0000    0.0000 C   0  0  0  0  0  0  0  0  0  0  0  0
    0.0000    0.0000    0.0000 C   0  0  0  0  0  0  0  0  0  0  0  0
    0.0000    0.0000    0.0000 C   0  0  0  0  0  0  0  0  0  0  0  0
    0.0000    0.0000    0.0000 Cl  0  0  0  0  0  0  0  0  0  0  0  0
  1  2  1  0
  2  3  1  0
  3  4  2  0
  3  5  1  0
  5  6  2  0
  6  7  1  0
  7  8  2  0
  8  9  1  0
  9 10  2  0
 10 11  1  0
 11 12  1  0
 12 13  2  0
 13 14  1  0
 14 15  2  0
 15 16  1  0
 16 17  1  0
 17 18  1  0
 18 19  1  0
 19 20  1  0
 20 21  1  0
 20 22  1  0
 22 23  1  0
 16 24  2  0
 10 25  1  0
 25 26  2  0
  5 27  1  0
 27 28  2  0
 28 29  1  0
 28 30  1  0
 30 31  2  0
 31 32  1  0
 32 33  2  0
 33 34  1  0
 26  2  1  0
 26  7  1  0
 24 12  1  0
 33 27  1  0
M  END
>  <pIC50>  (231) 
8.31

>  <ChEMBL_ID>  (231) 
CHEMBL566834

>  <document_journal>  (231) 
Bioorg. Med. Chem. Lett.

>  <bao_endpoint>  (231) 
BAO_0000190

>  <potential_duplicate>  (231) 
False

>  <uo_units>  (231) 
UO_0000065

>  <canonical_smiles>  (231) 
CN1C(=O)C(=Cc2cnc(Nc3cccc(COCC(O)CO)c3)nc12)c4c(Cl)cccc4Cl

>  <parent_molecule_chembl_id>  (231) 
CHEMBL566834

>  <assay_type>  (231) 
B

>  <src_id>  (231) 
1

>  <ligand_efficiency>  (231) 
{u'le': u'0.33', u'bei': u'16.57', u'sei': u'7.71', u'lle': u'4.46'}

>  <standard_flag>  (231) 
True

>  <molecule_chembl_id>  (231) 
CHEMBL566834

>  <target_organism>  (231) 
Homo sapiens

>  <standard_units>  (231) 
nM

>  <record_id>  (231) 
863203

>  <document_chembl_id>  (231) 
CHEMBL1156739

>  <bao_format>  (231) 
BAO_0000357

>  <data_validity_description>  (231) 
None

>  <activity_id>  (231) 
2988744

>  <standard_type>  (231) 
IC50

>  <target_chembl_id>  (231) 
CHEMBL1862

>  <data_validity_comment>  (231) 
None

>  <published_value>  (231) 
4.9

>  <document_year>  (231) 
2009

>  <target_pref_name>  (231) 
Tyrosine-protein kinase ABL

>  <assay_chembl_id>  (231) 
CHEMBL1050608

>  <standard_relation>  (231) 
=

>  <assay_description>  (231) 
Inhibition of human recombinant Abl

>  <published_relation>  (231) 
=

>  <standard_value>  (231) 
4.9

>  <qudt_units>  (231) 
http://www.openphacts.org/units/Nanomolar

>  <target_tax_id>  (231) 
9606

>  <bao_label>  (231) 
single protein format

>  <published_units>  (231) 
nM

>  <pchembl_value>  (231) 
8.31

>  <published_type>  (231) 
IC50

>  <activity_comment>  (231) 
None

$$$$

     RDKit          

 28 31  0  0  0  0  0  0  0  0999 V2000
    0.0000    0.0000    0.0000 C   0  0  0  0  0  0  0  0  0  0  0  0
    0.0000    0.0000    0.0000 N   0  0  0  0  0  0  0  0  0  0  0  0
    0.0000    0.0000    0.0000 C   0  0  0  0  0  0  0  0  0  0  0  0
    0.0000    0.0000    0.0000 O   0  0  0  0  0  0  0  0  0  0  0  0
    0.0000    0.0000    0.0000 C   0  0  0  0  0  0  0  0  0  0  0  0
    0.0000    0.0000    0.0000 C   0  0  0  0  0  0  0  0  0  0  0  0
    0.0000    0.0000    0.0000 C   0  0  0  0  0  0  0  0  0  0  0  0
    0.0000    0.0000    0.0000 C   0  0  0  0  0  0  0  0  0  0  0  0
    0.0000    0.0000    0.0000 N   0  0  0  0  0  0  0  0  0  0  0  0
    0.0000    0.0000    0.0000 C   0  0  0  0  0  0  0  0  0  0  0  0
    0.0000    0.0000    0.0000 N   0  0  0  0  0  0  0  0  0  0  0  0
    0.0000    0.0000    0.0000 C   0  0  0  0  0  0  0  0  0  0  0  0
    0.0000    0.0000    0.0000 C   0  0  0  0  0  0  0  0  0  0  0  0
    0.0000    0.0000    0.0000 C   0  0  0  0  0  0  0  0  0  0  0  0
    0.0000    0.0000    0.0000 C   0  0  0  0  0  0  0  0  0  0  0  0
    0.0000    0.0000    0.0000 C   0  0  0  0  0  0  0  0  0  0  0  0
    0.0000    0.0000    0.0000 N   0  0  0  0  0  0  0  0  0  0  0  0
    0.0000    0.0000    0.0000 C   0  0  0  0  0  0  0  0  0  0  0  0
    0.0000    0.0000    0.0000 N   0  0  0  0  0  0  0  0  0  0  0  0
    0.0000    0.0000    0.0000 C   0  0  0  0  0  0  0  0  0  0  0  0
    0.0000    0.0000    0.0000 C   0  0  0  0  0  0  0  0  0  0  0  0
    0.0000    0.0000    0.0000 C   0  0  0  0  0  0  0  0  0  0  0  0
    0.0000    0.0000    0.0000 Cl  0  0  0  0  0  0  0  0  0  0  0  0
    0.0000    0.0000    0.0000 C   0  0  0  0  0  0  0  0  0  0  0  0
    0.0000    0.0000    0.0000 C   0  0  0  0  0  0  0  0  0  0  0  0
    0.0000    0.0000    0.0000 C   0  0  0  0  0  0  0  0  0  0  0  0
    0.0000    0.0000    0.0000 C   0  0  0  0  0  0  0  0  0  0  0  0
    0.0000    0.0000    0.0000 Cl  0  0  0  0  0  0  0  0  0  0  0  0
  1  2  1  0
  2  3  1  0
  3  4  2  0
  3  5  1  0
  5  6  2  0
  6  7  1  0
  7  8  2  0
  8  9  1  0
  9 10  2  0
 10 11  1  0
 11 12  1  0
 12 13  2  0
 13 14  1  0
 14 15  2  0
 15 16  1  0
 16 17  1  0
 16 18  2  0
 10 19  1  0
 19 20  2  0
  5 21  1  0
 21 22  2  0
 22 23  1  0
 22 24  1  0
 24 25  2  0
 25 26  1  0
 26 27  2  0
 27 28  1  0
 20  2  1  0
 20  7  1  0
 18 12  1  0
 27 21  1  0
M  END
>  <pIC50>  (232) 
8.6

>  <ChEMBL_ID>  (232) 
CHEMBL577269

>  <document_journal>  (232) 
Bioorg. Med. Chem. Lett.

>  <bao_endpoint>  (232) 
BAO_0000190

>  <potential_duplicate>  (232) 
False

>  <uo_units>  (232) 
UO_0000065

>  <canonical_smiles>  (232) 
CN1C(=O)C(=Cc2cnc(Nc3cccc(N)c3)nc12)c4c(Cl)cccc4Cl

>  <parent_molecule_chembl_id>  (232) 
CHEMBL577269

>  <assay_type>  (232) 
B

>  <src_id>  (232) 
1

>  <ligand_efficiency>  (232) 
{u'le': u'0.42', u'bei': u'20.87', u'sei': u'10.22', u'lle': u'4.25'}

>  <standard_flag>  (232) 
True

>  <molecule_chembl_id>  (232) 
CHEMBL577269

>  <target_organism>  (232) 
Homo sapiens

>  <standard_units>  (232) 
nM

>  <record_id>  (232) 
863204

>  <document_chembl_id>  (232) 
CHEMBL1156739

>  <bao_format>  (232) 
BAO_0000357

>  <data_validity_description>  (232) 
None

>  <activity_id>  (232) 
2988745

>  <standard_type>  (232) 
IC50

>  <target_chembl_id>  (232) 
CHEMBL1862

>  <data_validity_comment>  (232) 
None

>  <published_value>  (232) 
2.5

>  <document_year>  (232) 
2009

>  <target_pref_name>  (232) 
Tyrosine-protein kinase ABL

>  <assay_chembl_id>  (232) 
CHEMBL1050608

>  <standard_relation>  (232) 
=

>  <assay_description>  (232) 
Inhibition of human recombinant Abl

>  <published_relation>  (232) 
=

>  <standard_value>  (232) 
2.5

>  <qudt_units>  (232) 
http://www.openphacts.org/units/Nanomolar

>  <target_tax_id>  (232) 
9606

>  <bao_label>  (232) 
single protein format

>  <published_units>  (232) 
nM

>  <pchembl_value>  (232) 
8.6

>  <published_type>  (232) 
IC50

>  <activity_comment>  (232) 
None

$$$$

     RDKit          

 31 34  0  0  0  0  0  0  0  0999 V2000
    0.0000    0.0000    0.0000 C   0  0  0  0  0  0  0  0  0  0  0  0
    0.0000    0.0000    0.0000 N   0  0  0  0  0  0  0  0  0  0  0  0
    0.0000    0.0000    0.0000 C   0  0  0  0  0  0  0  0  0  0  0  0
    0.0000    0.0000    0.0000 O   0  0  0  0  0  0  0  0  0  0  0  0
    0.0000    0.0000    0.0000 C   0  0  0  0  0  0  0  0  0  0  0  0
    0.0000    0.0000    0.0000 C   0  0  0  0  0  0  0  0  0  0  0  0
    0.0000    0.0000    0.0000 C   0  0  0  0  0  0  0  0  0  0  0  0
    0.0000    0.0000    0.0000 C   0  0  0  0  0  0  0  0  0  0  0  0
    0.0000    0.0000    0.0000 N   0  0  0  0  0  0  0  0  0  0  0  0
    0.0000    0.0000    0.0000 C   0  0  0  0  0  0  0  0  0  0  0  0
    0.0000    0.0000    0.0000 N   0  0  0  0  0  0  0  0  0  0  0  0
    0.0000    0.0000    0.0000 C   0  0  0  0  0  0  0  0  0  0  0  0
    0.0000    0.0000    0.0000 C   0  0  0  0  0  0  0  0  0  0  0  0
    0.0000    0.0000    0.0000 C   0  0  0  0  0  0  0  0  0  0  0  0
    0.0000    0.0000    0.0000 C   0  0  0  0  0  0  0  0  0  0  0  0
    0.0000    0.0000    0.0000 C   0  0  0  0  0  0  0  0  0  0  0  0
    0.0000    0.0000    0.0000 N   0  0  0  0  0  0  0  0  0  0  0  0
    0.0000    0.0000    0.0000 C   0  0  0  0  0  0  0  0  0  0  0  0
    0.0000    0.0000    0.0000 O   0  0  0  0  0  0  0  0  0  0  0  0
    0.0000    0.0000    0.0000 C   0  0  0  0  0  0  0  0  0  0  0  0
    0.0000    0.0000    0.0000 C   0  0  0  0  0  0  0  0  0  0  0  0
    0.0000    0.0000    0.0000 N   0  0  0  0  0  0  0  0  0  0  0  0
    0.0000    0.0000    0.0000 C   0  0  0  0  0  0  0  0  0  0  0  0
    0.0000    0.0000    0.0000 C   0  0  0  0  0  0  0  0  0  0  0  0
    0.0000    0.0000    0.0000 C   0  0  0  0  0  0  0  0  0  0  0  0
    0.0000    0.0000    0.0000 Cl  0  0  0  0  0  0  0  0  0  0  0  0
    0.0000    0.0000    0.0000 C   0  0  0  0  0  0  0  0  0  0  0  0
    0.0000    0.0000    0.0000 C   0  0  0  0  0  0  0  0  0  0  0  0
    0.0000    0.0000    0.0000 C   0  0  0  0  0  0  0  0  0  0  0  0
    0.0000    0.0000    0.0000 C   0  0  0  0  0  0  0  0  0  0  0  0
    0.0000    0.0000    0.0000 Cl  0  0  0  0  0  0  0  0  0  0  0  0
  1  2  1  0
  2  3  1  0
  3  4  2  0
  3  5  1  0
  5  6  2  0
  6  7  1  0
  7  8  2  0
  8  9  1  0
  9 10  2  0
 10 11  1  0
 11 12  1  0
 12 13  2  0
 13 14  1  0
 14 15  2  0
 15 16  1  0
 16 17  1  0
 17 18  1  0
 18 19  2  0
 18 20  1  0
 16 21  2  0
 10 22  1  0
 22 23  2  0
  5 24  1  0
 24 25  2  0
 25 26  1  0
 25 27  1  0
 27 28  2  0
 28 29  1  0
 29 30  2  0
 30 31  1  0
 23  2  1  0
 23  7  1  0
 21 12  1  0
 30 24  1  0
M  END
>  <pIC50>  (233) 
8.3

>  <ChEMBL_ID>  (233) 
CHEMBL565801

>  <document_journal>  (233) 
Bioorg. Med. Chem. Lett.

>  <bao_endpoint>  (233) 
BAO_0000190

>  <potential_duplicate>  (233) 
False

>  <uo_units>  (233) 
UO_0000065

>  <canonical_smiles>  (233) 
CN1C(=O)C(=Cc2cnc(Nc3cccc(NC(=O)C)c3)nc12)c4c(Cl)cccc4Cl

>  <parent_molecule_chembl_id>  (233) 
CHEMBL565801

>  <assay_type>  (233) 
B

>  <src_id>  (233) 
1

>  <ligand_efficiency>  (233) 
{u'le': u'0.37', u'bei': u'18.27', u'sei': u'9.52', u'lle': u'4.08'}

>  <standard_flag>  (233) 
True

>  <molecule_chembl_id>  (233) 
CHEMBL565801

>  <target_organism>  (233) 
Homo sapiens

>  <standard_units>  (233) 
nM

>  <record_id>  (233) 
863245

>  <document_chembl_id>  (233) 
CHEMBL1156739

>  <bao_format>  (233) 
BAO_0000357

>  <data_validity_description>  (233) 
None

>  <activity_id>  (233) 
2988746

>  <standard_type>  (233) 
IC50

>  <target_chembl_id>  (233) 
CHEMBL1862

>  <data_validity_comment>  (233) 
None

>  <published_value>  (233) 
5

>  <document_year>  (233) 
2009

>  <target_pref_name>  (233) 
Tyrosine-protein kinase ABL

>  <assay_chembl_id>  (233) 
CHEMBL1050608

>  <standard_relation>  (233) 
=

>  <assay_description>  (233) 
Inhibition of human recombinant Abl

>  <published_relation>  (233) 
=

>  <standard_value>  (233) 
5

>  <qudt_units>  (233) 
http://www.openphacts.org/units/Nanomolar

>  <target_tax_id>  (233) 
9606

>  <bao_label>  (233) 
single protein format

>  <published_units>  (233) 
nM

>  <pchembl_value>  (233) 
8.3

>  <published_type>  (233) 
IC50

>  <activity_comment>  (233) 
None

$$$$

     RDKit          

 28 31  0  0  0  0  0  0  0  0999 V2000
    0.0000    0.0000    0.0000 C   0  0  0  0  0  0  0  0  0  0  0  0
    0.0000    0.0000    0.0000 N   0  0  0  0  0  0  0  0  0  0  0  0
    0.0000    0.0000    0.0000 C   0  0  0  0  0  0  0  0  0  0  0  0
    0.0000    0.0000    0.0000 O   0  0  0  0  0  0  0  0  0  0  0  0
    0.0000    0.0000    0.0000 C   0  0  0  0  0  0  0  0  0  0  0  0
    0.0000    0.0000    0.0000 C   0  0  0  0  0  0  0  0  0  0  0  0
    0.0000    0.0000    0.0000 C   0  0  0  0  0  0  0  0  0  0  0  0
    0.0000    0.0000    0.0000 C   0  0  0  0  0  0  0  0  0  0  0  0
    0.0000    0.0000    0.0000 N   0  0  0  0  0  0  0  0  0  0  0  0
    0.0000    0.0000    0.0000 C   0  0  0  0  0  0  0  0  0  0  0  0
    0.0000    0.0000    0.0000 N   0  0  0  0  0  0  0  0  0  0  0  0
    0.0000    0.0000    0.0000 C   0  0  0  0  0  0  0  0  0  0  0  0
    0.0000    0.0000    0.0000 C   0  0  0  0  0  0  0  0  0  0  0  0
    0.0000    0.0000    0.0000 C   0  0  0  0  0  0  0  0  0  0  0  0
    0.0000    0.0000    0.0000 C   0  0  0  0  0  0  0  0  0  0  0  0
    0.0000    0.0000    0.0000 O   0  0  0  0  0  0  0  0  0  0  0  0
    0.0000    0.0000    0.0000 C   0  0  0  0  0  0  0  0  0  0  0  0
    0.0000    0.0000    0.0000 C   0  0  0  0  0  0  0  0  0  0  0  0
    0.0000    0.0000    0.0000 N   0  0  0  0  0  0  0  0  0  0  0  0
    0.0000    0.0000    0.0000 C   0  0  0  0  0  0  0  0  0  0  0  0
    0.0000    0.0000    0.0000 C   0  0  0  0  0  0  0  0  0  0  0  0
    0.0000    0.0000    0.0000 C   0  0  0  0  0  0  0  0  0  0  0  0
    0.0000    0.0000    0.0000 Cl  0  0  0  0  0  0  0  0  0  0  0  0
    0.0000    0.0000    0.0000 C   0  0  0  0  0  0  0  0  0  0  0  0
    0.0000    0.0000    0.0000 C   0  0  0  0  0  0  0  0  0  0  0  0
    0.0000    0.0000    0.0000 C   0  0  0  0  0  0  0  0  0  0  0  0
    0.0000    0.0000    0.0000 C   0  0  0  0  0  0  0  0  0  0  0  0
    0.0000    0.0000    0.0000 Cl  0  0  0  0  0  0  0  0  0  0  0  0
  1  2  1  0
  2  3  1  0
  3  4  2  0
  3  5  1  0
  5  6  2  0
  6  7  1  0
  7  8  2  0
  8  9  1  0
  9 10  2  0
 10 11  1  0
 11 12  1  0
 12 13  2  0
 13 14  1  0
 14 15  2  0
 15 16  1  0
 15 17  1  0
 17 18  2  0
 10 19  1  0
 19 20  2  0
  5 21  1  0
 21 22  2  0
 22 23  1  0
 22 24  1  0
 24 25  2  0
 25 26  1  0
 26 27  2  0
 27 28  1  0
 20  2  1  0
 20  7  1  0
 18 12  1  0
 27 21  1  0
M  END
>  <pIC50>  (234) 
8.28

>  <ChEMBL_ID>  (234) 
CHEMBL323405

>  <document_journal>  (234) 
Bioorg. Med. Chem. Lett.

>  <bao_endpoint>  (234) 
BAO_0000190

>  <potential_duplicate>  (234) 
False

>  <uo_units>  (234) 
UO_0000065

>  <canonical_smiles>  (234) 
CN1C(=O)C(=Cc2cnc(Nc3ccc(O)cc3)nc12)c4c(Cl)cccc4Cl

>  <parent_molecule_chembl_id>  (234) 
CHEMBL323405

>  <assay_type>  (234) 
B

>  <src_id>  (234) 
1

>  <ligand_efficiency>  (234) 
{u'le': u'0.4', u'bei': u'20.03', u'sei': u'10.56', u'lle': u'3.42'}

>  <standard_flag>  (234) 
True

>  <molecule_chembl_id>  (234) 
CHEMBL323405

>  <target_organism>  (234) 
Homo sapiens

>  <standard_units>  (234) 
nM

>  <record_id>  (234) 
863251

>  <document_chembl_id>  (234) 
CHEMBL1156739

>  <bao_format>  (234) 
BAO_0000357

>  <data_validity_description>  (234) 
None

>  <activity_id>  (234) 
2988747

>  <standard_type>  (234) 
IC50

>  <target_chembl_id>  (234) 
CHEMBL1862

>  <data_validity_comment>  (234) 
None

>  <published_value>  (234) 
5.3

>  <document_year>  (234) 
2009

>  <target_pref_name>  (234) 
Tyrosine-protein kinase ABL

>  <assay_chembl_id>  (234) 
CHEMBL1050608

>  <standard_relation>  (234) 
=

>  <assay_description>  (234) 
Inhibition of human recombinant Abl

>  <published_relation>  (234) 
=

>  <standard_value>  (234) 
5.3

>  <qudt_units>  (234) 
http://www.openphacts.org/units/Nanomolar

>  <target_tax_id>  (234) 
9606

>  <bao_label>  (234) 
single protein format

>  <published_units>  (234) 
nM

>  <pchembl_value>  (234) 
8.28

>  <published_type>  (234) 
IC50

>  <activity_comment>  (234) 
None

$$$$

     RDKit          

 39 43  0  0  0  0  0  0  0  0999 V2000
    0.0000    0.0000    0.0000 C   0  0  0  0  0  0  0  0  0  0  0  0
    0.0000    0.0000    0.0000 N   0  0  0  0  0  0  0  0  0  0  0  0
    0.0000    0.0000    0.0000 C   0  0  0  0  0  0  0  0  0  0  0  0
    0.0000    0.0000    0.0000 O   0  0  0  0  0  0  0  0  0  0  0  0
    0.0000    0.0000    0.0000 C   0  0  0  0  0  0  0  0  0  0  0  0
    0.0000    0.0000    0.0000 C   0  0  0  0  0  0  0  0  0  0  0  0
    0.0000    0.0000    0.0000 C   0  0  0  0  0  0  0  0  0  0  0  0
    0.0000    0.0000    0.0000 C   0  0  0  0  0  0  0  0  0  0  0  0
    0.0000    0.0000    0.0000 N   0  0  0  0  0  0  0  0  0  0  0  0
    0.0000    0.0000    0.0000 C   0  0  0  0  0  0  0  0  0  0  0  0
    0.0000    0.0000    0.0000 N   0  0  0  0  0  0  0  0  0  0  0  0
    0.0000    0.0000    0.0000 C   0  0  0  0  0  0  0  0  0  0  0  0
    0.0000    0.0000    0.0000 C   0  0  0  0  0  0  0  0  0  0  0  0
    0.0000    0.0000    0.0000 C   0  0  0  0  0  0  0  0  0  0  0  0
    0.0000    0.0000    0.0000 C   0  0  0  0  0  0  0  0  0  0  0  0
    0.0000    0.0000    0.0000 O   0  0  0  0  0  0  0  0  0  0  0  0
    0.0000    0.0000    0.0000 C   0  0  0  0  0  0  0  0  0  0  0  0
    0.0000    0.0000    0.0000 O   0  0  0  0  0  0  0  0  0  0  0  0
    0.0000    0.0000    0.0000 C   0  0  0  0  0  0  0  0  0  0  0  0
    0.0000    0.0000    0.0000 C   0  0  0  0  0  0  0  0  0  0  0  0
    0.0000    0.0000    0.0000 O   0  0  0  0  0  0  0  0  0  0  0  0
    0.0000    0.0000    0.0000 C   0  0  0  0  0  0  0  0  0  0  0  0
    0.0000    0.0000    0.0000 O   0  0  0  0  0  0  0  0  0  0  0  0
    0.0000    0.0000    0.0000 C   0  0  0  0  0  0  0  0  0  0  0  0
    0.0000    0.0000    0.0000 O   0  0  0  0  0  0  0  0  0  0  0  0
    0.0000    0.0000    0.0000 C   0  0  0  0  0  0  0  0  0  0  0  0
    0.0000    0.0000    0.0000 O   0  0  0  0  0  0  0  0  0  0  0  0
    0.0000    0.0000    0.0000 C   0  0  0  0  0  0  0  0  0  0  0  0
    0.0000    0.0000    0.0000 C   0  0  0  0  0  0  0  0  0  0  0  0
    0.0000    0.0000    0.0000 N   0  0  0  0  0  0  0  0  0  0  0  0
    0.0000    0.0000    0.0000 C   0  0  0  0  0  0  0  0  0  0  0  0
    0.0000    0.0000    0.0000 C   0  0  0  0  0  0  0  0  0  0  0  0
    0.0000    0.0000    0.0000 C   0  0  0  0  0  0  0  0  0  0  0  0
    0.0000    0.0000    0.0000 Cl  0  0  0  0  0  0  0  0  0  0  0  0
    0.0000    0.0000    0.0000 C   0  0  0  0  0  0  0  0  0  0  0  0
    0.0000    0.0000    0.0000 C   0  0  0  0  0  0  0  0  0  0  0  0
    0.0000    0.0000    0.0000 C   0  0  0  0  0  0  0  0  0  0  0  0
    0.0000    0.0000    0.0000 C   0  0  0  0  0  0  0  0  0  0  0  0
    0.0000    0.0000    0.0000 Cl  0  0  0  0  0  0  0  0  0  0  0  0
  1  2  1  0
  2  3  1  0
  3  4  2  0
  3  5  1  0
  5  6  2  0
  6  7  1  0
  7  8  2  0
  8  9  1  0
  9 10  2  0
 10 11  1  0
 11 12  1  0
 12 13  2  0
 13 14  1  0
 14 15  2  0
 15 16  1  0
 16 17  1  0
 17 18  1  0
 18 19  1  0
 19 20  1  0
 20 21  1  0
 19 22  1  0
 22 23  1  0
 22 24  1  0
 24 25  1  0
 24 26  1  0
 26 27  1  0
 15 28  1  0
 28 29  2  0
 10 30  1  0
 30 31  2  0
  5 32  1  0
 32 33  2  0
 33 34  1  0
 33 35  1  0
 35 36  2  0
 36 37  1  0
 37 38  2  0
 38 39  1  0
 31  2  1  0
 31  7  1  0
 29 12  1  0
 26 17  1  0
 38 32  1  0
M  END
>  <pIC50>  (235) 
8.85

>  <ChEMBL_ID>  (235) 
CHEMBL585666

>  <document_journal>  (235) 
Bioorg. Med. Chem. Lett.

>  <bao_endpoint>  (235) 
BAO_0000190

>  <potential_duplicate>  (235) 
False

>  <uo_units>  (235) 
UO_0000065

>  <canonical_smiles>  (235) 
CN1C(=O)C(=Cc2cnc(Nc3ccc(OC4OC(CO)C(O)C(O)C4O)cc3)nc12)c5c(Cl)cccc5Cl

>  <parent_molecule_chembl_id>  (235) 
CHEMBL585666

>  <assay_type>  (235) 
B

>  <src_id>  (235) 
1

>  <ligand_efficiency>  (235) 
{u'le': u'0.31', u'bei': u'15.39', u'sei': u'5.62', u'lle': u'5.92'}

>  <standard_flag>  (235) 
True

>  <molecule_chembl_id>  (235) 
CHEMBL585666

>  <target_organism>  (235) 
Homo sapiens

>  <standard_units>  (235) 
nM

>  <record_id>  (235) 
863267

>  <document_chembl_id>  (235) 
CHEMBL1156739

>  <bao_format>  (235) 
BAO_0000357

>  <data_validity_description>  (235) 
None

>  <activity_id>  (235) 
2988748

>  <standard_type>  (235) 
IC50

>  <target_chembl_id>  (235) 
CHEMBL1862

>  <data_validity_comment>  (235) 
None

>  <published_value>  (235) 
1.4

>  <document_year>  (235) 
2009

>  <target_pref_name>  (235) 
Tyrosine-protein kinase ABL

>  <assay_chembl_id>  (235) 
CHEMBL1050608

>  <standard_relation>  (235) 
=

>  <assay_description>  (235) 
Inhibition of human recombinant Abl

>  <published_relation>  (235) 
=

>  <standard_value>  (235) 
1.4

>  <qudt_units>  (235) 
http://www.openphacts.org/units/Nanomolar

>  <target_tax_id>  (235) 
9606

>  <bao_label>  (235) 
single protein format

>  <published_units>  (235) 
nM

>  <pchembl_value>  (235) 
8.85

>  <published_type>  (235) 
IC50

>  <activity_comment>  (235) 
None

$$$$

     RDKit          

 28 31  0  0  0  0  0  0  0  0999 V2000
    0.0000    0.0000    0.0000 C   0  0  0  0  0  0  0  0  0  0  0  0
    0.0000    0.0000    0.0000 N   0  0  0  0  0  0  0  0  0  0  0  0
    0.0000    0.0000    0.0000 C   0  0  0  0  0  0  0  0  0  0  0  0
    0.0000    0.0000    0.0000 O   0  0  0  0  0  0  0  0  0  0  0  0
    0.0000    0.0000    0.0000 C   0  0  0  0  0  0  0  0  0  0  0  0
    0.0000    0.0000    0.0000 C   0  0  0  0  0  0  0  0  0  0  0  0
    0.0000    0.0000    0.0000 C   0  0  0  0  0  0  0  0  0  0  0  0
    0.0000    0.0000    0.0000 C   0  0  0  0  0  0  0  0  0  0  0  0
    0.0000    0.0000    0.0000 N   0  0  0  0  0  0  0  0  0  0  0  0
    0.0000    0.0000    0.0000 C   0  0  0  0  0  0  0  0  0  0  0  0
    0.0000    0.0000    0.0000 N   0  0  0  0  0  0  0  0  0  0  0  0
    0.0000    0.0000    0.0000 C   0  0  0  0  0  0  0  0  0  0  0  0
    0.0000    0.0000    0.0000 C   0  0  0  0  0  0  0  0  0  0  0  0
    0.0000    0.0000    0.0000 C   0  0  0  0  0  0  0  0  0  0  0  0
    0.0000    0.0000    0.0000 C   0  0  0  0  0  0  0  0  0  0  0  0
    0.0000    0.0000    0.0000 I   0  0  0  0  0  0  0  0  0  0  0  0
    0.0000    0.0000    0.0000 C   0  0  0  0  0  0  0  0  0  0  0  0
    0.0000    0.0000    0.0000 C   0  0  0  0  0  0  0  0  0  0  0  0
    0.0000    0.0000    0.0000 N   0  0  0  0  0  0  0  0  0  0  0  0
    0.0000    0.0000    0.0000 C   0  0  0  0  0  0  0  0  0  0  0  0
    0.0000    0.0000    0.0000 C   0  0  0  0  0  0  0  0  0  0  0  0
    0.0000    0.0000    0.0000 C   0  0  0  0  0  0  0  0  0  0  0  0
    0.0000    0.0000    0.0000 Cl  0  0  0  0  0  0  0  0  0  0  0  0
    0.0000    0.0000    0.0000 C   0  0  0  0  0  0  0  0  0  0  0  0
    0.0000    0.0000    0.0000 C   0  0  0  0  0  0  0  0  0  0  0  0
    0.0000    0.0000    0.0000 C   0  0  0  0  0  0  0  0  0  0  0  0
    0.0000    0.0000    0.0000 C   0  0  0  0  0  0  0  0  0  0  0  0
    0.0000    0.0000    0.0000 Cl  0  0  0  0  0  0  0  0  0  0  0  0
  1  2  1  0
  2  3  1  0
  3  4  2  0
  3  5  1  0
  5  6  2  0
  6  7  1  0
  7  8  2  0
  8  9  1  0
  9 10  2  0
 10 11  1  0
 11 12  1  0
 12 13  2  0
 13 14  1  0
 14 15  2  0
 15 16  1  0
 15 17  1  0
 17 18  2  0
 10 19  1  0
 19 20  2  0
  5 21  1  0
 21 22  2  0
 22 23  1  0
 22 24  1  0
 24 25  2  0
 25 26  1  0
 26 27  2  0
 27 28  1  0
 20  2  1  0
 20  7  1  0
 18 12  1  0
 27 21  1  0
M  END
>  <pIC50>  (236) 
7.89

>  <ChEMBL_ID>  (236) 
CHEMBL570175

>  <document_journal>  (236) 
Bioorg. Med. Chem. Lett.

>  <bao_endpoint>  (236) 
BAO_0000190

>  <potential_duplicate>  (236) 
False

>  <uo_units>  (236) 
UO_0000065

>  <canonical_smiles>  (236) 
CN1C(=O)C(=Cc2cnc(Nc3ccc(I)cc3)nc12)c4c(Cl)cccc4Cl

>  <parent_molecule_chembl_id>  (236) 
CHEMBL570175

>  <assay_type>  (236) 
B

>  <src_id>  (236) 
1

>  <ligand_efficiency>  (236) 
{u'le': u'0.38', u'bei': u'15.07', u'sei': u'13.57', u'lle': u'2.21'}

>  <standard_flag>  (236) 
True

>  <molecule_chembl_id>  (236) 
CHEMBL570175

>  <target_organism>  (236) 
Homo sapiens

>  <standard_units>  (236) 
nM

>  <record_id>  (236) 
863281

>  <document_chembl_id>  (236) 
CHEMBL1156739

>  <bao_format>  (236) 
BAO_0000357

>  <data_validity_description>  (236) 
None

>  <activity_id>  (236) 
2988749

>  <standard_type>  (236) 
IC50

>  <target_chembl_id>  (236) 
CHEMBL1862

>  <data_validity_comment>  (236) 
None

>  <published_value>  (236) 
13

>  <document_year>  (236) 
2009

>  <target_pref_name>  (236) 
Tyrosine-protein kinase ABL

>  <assay_chembl_id>  (236) 
CHEMBL1050608

>  <standard_relation>  (236) 
=

>  <assay_description>  (236) 
Inhibition of human recombinant Abl

>  <published_relation>  (236) 
=

>  <standard_value>  (236) 
13

>  <qudt_units>  (236) 
http://www.openphacts.org/units/Nanomolar

>  <target_tax_id>  (236) 
9606

>  <bao_label>  (236) 
single protein format

>  <published_units>  (236) 
nM

>  <pchembl_value>  (236) 
7.89

>  <published_type>  (236) 
IC50

>  <activity_comment>  (236) 
None

$$$$

     RDKit          

 28 31  0  0  0  0  0  0  0  0999 V2000
    0.0000    0.0000    0.0000 C   0  0  0  0  0  0  0  0  0  0  0  0
    0.0000    0.0000    0.0000 N   0  0  0  0  0  0  0  0  0  0  0  0
    0.0000    0.0000    0.0000 C   0  0  0  0  0  0  0  0  0  0  0  0
    0.0000    0.0000    0.0000 O   0  0  0  0  0  0  0  0  0  0  0  0
    0.0000    0.0000    0.0000 C   0  0  0  0  0  0  0  0  0  0  0  0
    0.0000    0.0000    0.0000 C   0  0  0  0  0  0  0  0  0  0  0  0
    0.0000    0.0000    0.0000 C   0  0  0  0  0  0  0  0  0  0  0  0
    0.0000    0.0000    0.0000 C   0  0  0  0  0  0  0  0  0  0  0  0
    0.0000    0.0000    0.0000 N   0  0  0  0  0  0  0  0  0  0  0  0
    0.0000    0.0000    0.0000 C   0  0  0  0  0  0  0  0  0  0  0  0
    0.0000    0.0000    0.0000 N   0  0  0  0  0  0  0  0  0  0  0  0
    0.0000    0.0000    0.0000 C   0  0  0  0  0  0  0  0  0  0  0  0
    0.0000    0.0000    0.0000 C   0  0  0  0  0  0  0  0  0  0  0  0
    0.0000    0.0000    0.0000 C   0  0  0  0  0  0  0  0  0  0  0  0
    0.0000    0.0000    0.0000 C   0  0  0  0  0  0  0  0  0  0  0  0
    0.0000    0.0000    0.0000 F   0  0  0  0  0  0  0  0  0  0  0  0
    0.0000    0.0000    0.0000 C   0  0  0  0  0  0  0  0  0  0  0  0
    0.0000    0.0000    0.0000 C   0  0  0  0  0  0  0  0  0  0  0  0
    0.0000    0.0000    0.0000 N   0  0  0  0  0  0  0  0  0  0  0  0
    0.0000    0.0000    0.0000 C   0  0  0  0  0  0  0  0  0  0  0  0
    0.0000    0.0000    0.0000 C   0  0  0  0  0  0  0  0  0  0  0  0
    0.0000    0.0000    0.0000 C   0  0  0  0  0  0  0  0  0  0  0  0
    0.0000    0.0000    0.0000 Cl  0  0  0  0  0  0  0  0  0  0  0  0
    0.0000    0.0000    0.0000 C   0  0  0  0  0  0  0  0  0  0  0  0
    0.0000    0.0000    0.0000 C   0  0  0  0  0  0  0  0  0  0  0  0
    0.0000    0.0000    0.0000 C   0  0  0  0  0  0  0  0  0  0  0  0
    0.0000    0.0000    0.0000 C   0  0  0  0  0  0  0  0  0  0  0  0
    0.0000    0.0000    0.0000 Cl  0  0  0  0  0  0  0  0  0  0  0  0
  1  2  1  0
  2  3  1  0
  3  4  2  0
  3  5  1  0
  5  6  2  0
  6  7  1  0
  7  8  2  0
  8  9  1  0
  9 10  2  0
 10 11  1  0
 11 12  1  0
 12 13  2  0
 13 14  1  0
 14 15  2  0
 15 16  1  0
 15 17  1  0
 17 18  2  0
 10 19  1  0
 19 20  2  0
  5 21  1  0
 21 22  2  0
 22 23  1  0
 22 24  1  0
 24 25  2  0
 25 26  1  0
 26 27  2  0
 27 28  1  0
 20  2  1  0
 20  7  1  0
 18 12  1  0
 27 21  1  0
M  END
>  <pIC50>  (237) 
7.68

>  <ChEMBL_ID>  (237) 
CHEMBL574059

>  <document_journal>  (237) 
Bioorg. Med. Chem. Lett.

>  <bao_endpoint>  (237) 
BAO_0000190

>  <potential_duplicate>  (237) 
False

>  <uo_units>  (237) 
UO_0000065

>  <canonical_smiles>  (237) 
CN1C(=O)C(=Cc2cnc(Nc3ccc(F)cc3)nc12)c4c(Cl)cccc4Cl

>  <parent_molecule_chembl_id>  (237) 
CHEMBL574059

>  <assay_type>  (237) 
B

>  <src_id>  (237) 
1

>  <ligand_efficiency>  (237) 
{u'le': u'0.37', u'bei': u'18.49', u'sei': u'13.21', u'lle': u'2.38'}

>  <standard_flag>  (237) 
True

>  <molecule_chembl_id>  (237) 
CHEMBL574059

>  <target_organism>  (237) 
Homo sapiens

>  <standard_units>  (237) 
nM

>  <record_id>  (237) 
863282

>  <document_chembl_id>  (237) 
CHEMBL1156739

>  <bao_format>  (237) 
BAO_0000357

>  <data_validity_description>  (237) 
None

>  <activity_id>  (237) 
2988750

>  <standard_type>  (237) 
IC50

>  <target_chembl_id>  (237) 
CHEMBL1862

>  <data_validity_comment>  (237) 
None

>  <published_value>  (237) 
21

>  <document_year>  (237) 
2009

>  <target_pref_name>  (237) 
Tyrosine-protein kinase ABL

>  <assay_chembl_id>  (237) 
CHEMBL1050608

>  <standard_relation>  (237) 
=

>  <assay_description>  (237) 
Inhibition of human recombinant Abl

>  <published_relation>  (237) 
=

>  <standard_value>  (237) 
21

>  <qudt_units>  (237) 
http://www.openphacts.org/units/Nanomolar

>  <target_tax_id>  (237) 
9606

>  <bao_label>  (237) 
single protein format

>  <published_units>  (237) 
nM

>  <pchembl_value>  (237) 
7.68

>  <published_type>  (237) 
IC50

>  <activity_comment>  (237) 
None

$$$$

     RDKit          

 28 31  0  0  0  0  0  0  0  0999 V2000
    0.0000    0.0000    0.0000 C   0  0  0  0  0  0  0  0  0  0  0  0
    0.0000    0.0000    0.0000 N   0  0  0  0  0  0  0  0  0  0  0  0
    0.0000    0.0000    0.0000 C   0  0  0  0  0  0  0  0  0  0  0  0
    0.0000    0.0000    0.0000 O   0  0  0  0  0  0  0  0  0  0  0  0
    0.0000    0.0000    0.0000 C   0  0  0  0  0  0  0  0  0  0  0  0
    0.0000    0.0000    0.0000 C   0  0  0  0  0  0  0  0  0  0  0  0
    0.0000    0.0000    0.0000 C   0  0  0  0  0  0  0  0  0  0  0  0
    0.0000    0.0000    0.0000 C   0  0  0  0  0  0  0  0  0  0  0  0
    0.0000    0.0000    0.0000 N   0  0  0  0  0  0  0  0  0  0  0  0
    0.0000    0.0000    0.0000 C   0  0  0  0  0  0  0  0  0  0  0  0
    0.0000    0.0000    0.0000 N   0  0  0  0  0  0  0  0  0  0  0  0
    0.0000    0.0000    0.0000 C   0  0  0  0  0  0  0  0  0  0  0  0
    0.0000    0.0000    0.0000 C   0  0  0  0  0  0  0  0  0  0  0  0
    0.0000    0.0000    0.0000 C   0  0  0  0  0  0  0  0  0  0  0  0
    0.0000    0.0000    0.0000 C   0  0  0  0  0  0  0  0  0  0  0  0
    0.0000    0.0000    0.0000 C   0  0  0  0  0  0  0  0  0  0  0  0
    0.0000    0.0000    0.0000 C   0  0  0  0  0  0  0  0  0  0  0  0
    0.0000    0.0000    0.0000 C   0  0  0  0  0  0  0  0  0  0  0  0
    0.0000    0.0000    0.0000 N   0  0  0  0  0  0  0  0  0  0  0  0
    0.0000    0.0000    0.0000 C   0  0  0  0  0  0  0  0  0  0  0  0
    0.0000    0.0000    0.0000 C   0  0  0  0  0  0  0  0  0  0  0  0
    0.0000    0.0000    0.0000 C   0  0  0  0  0  0  0  0  0  0  0  0
    0.0000    0.0000    0.0000 Cl  0  0  0  0  0  0  0  0  0  0  0  0
    0.0000    0.0000    0.0000 C   0  0  0  0  0  0  0  0  0  0  0  0
    0.0000    0.0000    0.0000 C   0  0  0  0  0  0  0  0  0  0  0  0
    0.0000    0.0000    0.0000 C   0  0  0  0  0  0  0  0  0  0  0  0
    0.0000    0.0000    0.0000 C   0  0  0  0  0  0  0  0  0  0  0  0
    0.0000    0.0000    0.0000 Cl  0  0  0  0  0  0  0  0  0  0  0  0
  1  2  1  0
  2  3  1  0
  3  4  2  0
  3  5  1  0
  5  6  2  0
  6  7  1  0
  7  8  2  0
  8  9  1  0
  9 10  2  0
 10 11  1  0
 11 12  1  0
 12 13  2  0
 13 14  1  0
 14 15  2  0
 15 16  1  0
 15 17  1  0
 17 18  2  0
 10 19  1  0
 19 20  2  0
  5 21  1  0
 21 22  2  0
 22 23  1  0
 22 24  1  0
 24 25  2  0
 25 26  1  0
 26 27  2  0
 27 28  1  0
 20  2  1  0
 20  7  1  0
 18 12  1  0
 27 21  1  0
M  END
>  <pIC50>  (238) 
7.52

>  <ChEMBL_ID>  (238) 
CHEMBL111339

>  <document_journal>  (238) 
Bioorg. Med. Chem. Lett.

>  <bao_endpoint>  (238) 
BAO_0000190

>  <potential_duplicate>  (238) 
False

>  <uo_units>  (238) 
UO_0000065

>  <canonical_smiles>  (238) 
CN1C(=O)C(=Cc2cnc(Nc3ccc(C)cc3)nc12)c4c(Cl)cccc4Cl

>  <parent_molecule_chembl_id>  (238) 
CHEMBL111339

>  <assay_type>  (238) 
B

>  <src_id>  (238) 
1

>  <ligand_efficiency>  (238) 
{u'le': u'0.37', u'bei': u'18.29', u'sei': u'12.94', u'lle': u'1.94'}

>  <standard_flag>  (238) 
True

>  <molecule_chembl_id>  (238) 
CHEMBL111339

>  <target_organism>  (238) 
Homo sapiens

>  <standard_units>  (238) 
nM

>  <record_id>  (238) 
863205

>  <document_chembl_id>  (238) 
CHEMBL1156739

>  <bao_format>  (238) 
BAO_0000357

>  <data_validity_description>  (238) 
None

>  <activity_id>  (238) 
2988751

>  <standard_type>  (238) 
IC50

>  <target_chembl_id>  (238) 
CHEMBL1862

>  <data_validity_comment>  (238) 
None

>  <published_value>  (238) 
30

>  <document_year>  (238) 
2009

>  <target_pref_name>  (238) 
Tyrosine-protein kinase ABL

>  <assay_chembl_id>  (238) 
CHEMBL1050608

>  <standard_relation>  (238) 
=

>  <assay_description>  (238) 
Inhibition of human recombinant Abl

>  <published_relation>  (238) 
=

>  <standard_value>  (238) 
30

>  <qudt_units>  (238) 
http://www.openphacts.org/units/Nanomolar

>  <target_tax_id>  (238) 
9606

>  <bao_label>  (238) 
single protein format

>  <published_units>  (238) 
nM

>  <pchembl_value>  (238) 
7.52

>  <published_type>  (238) 
IC50

>  <activity_comment>  (238) 
None

$$$$

     RDKit          

 30 33  0  0  0  0  0  0  0  0999 V2000
    0.0000    0.0000    0.0000 C   0  0  0  0  0  0  0  0  0  0  0  0
    0.0000    0.0000    0.0000 N   0  0  0  0  0  0  0  0  0  0  0  0
    0.0000    0.0000    0.0000 C   0  0  0  0  0  0  0  0  0  0  0  0
    0.0000    0.0000    0.0000 O   0  0  0  0  0  0  0  0  0  0  0  0
    0.0000    0.0000    0.0000 C   0  0  0  0  0  0  0  0  0  0  0  0
    0.0000    0.0000    0.0000 C   0  0  0  0  0  0  0  0  0  0  0  0
    0.0000    0.0000    0.0000 C   0  0  0  0  0  0  0  0  0  0  0  0
    0.0000    0.0000    0.0000 C   0  0  0  0  0  0  0  0  0  0  0  0
    0.0000    0.0000    0.0000 N   0  0  0  0  0  0  0  0  0  0  0  0
    0.0000    0.0000    0.0000 C   0  0  0  0  0  0  0  0  0  0  0  0
    0.0000    0.0000    0.0000 N   0  0  0  0  0  0  0  0  0  0  0  0
    0.0000    0.0000    0.0000 C   0  0  0  0  0  0  0  0  0  0  0  0
    0.0000    0.0000    0.0000 C   0  0  0  0  0  0  0  0  0  0  0  0
    0.0000    0.0000    0.0000 C   0  0  0  0  0  0  0  0  0  0  0  0
    0.0000    0.0000    0.0000 C   0  0  0  0  0  0  0  0  0  0  0  0
    0.0000    0.0000    0.0000 C   0  0  0  0  0  0  0  0  0  0  0  0
    0.0000    0.0000    0.0000 C   0  0  0  0  0  0  0  0  0  0  0  0
    0.0000    0.0000    0.0000 O   0  0  0  0  0  0  0  0  0  0  0  0
    0.0000    0.0000    0.0000 C   0  0  0  0  0  0  0  0  0  0  0  0
    0.0000    0.0000    0.0000 C   0  0  0  0  0  0  0  0  0  0  0  0
    0.0000    0.0000    0.0000 N   0  0  0  0  0  0  0  0  0  0  0  0
    0.0000    0.0000    0.0000 C   0  0  0  0  0  0  0  0  0  0  0  0
    0.0000    0.0000    0.0000 C   0  0  0  0  0  0  0  0  0  0  0  0
    0.0000    0.0000    0.0000 C   0  0  0  0  0  0  0  0  0  0  0  0
    0.0000    0.0000    0.0000 Cl  0  0  0  0  0  0  0  0  0  0  0  0
    0.0000    0.0000    0.0000 C   0  0  0  0  0  0  0  0  0  0  0  0
    0.0000    0.0000    0.0000 C   0  0  0  0  0  0  0  0  0  0  0  0
    0.0000    0.0000    0.0000 C   0  0  0  0  0  0  0  0  0  0  0  0
    0.0000    0.0000    0.0000 C   0  0  0  0  0  0  0  0  0  0  0  0
    0.0000    0.0000    0.0000 Cl  0  0  0  0  0  0  0  0  0  0  0  0
  1  2  1  0
  2  3  1  0
  3  4  2  0
  3  5  1  0
  5  6  2  0
  6  7  1  0
  7  8  2  0
  8  9  1  0
  9 10  2  0
 10 11  1  0
 11 12  1  0
 12 13  2  0
 13 14  1  0
 14 15  2  0
 15 16  1  0
 16 17  1  0
 17 18  1  0
 15 19  1  0
 19 20  2  0
 10 21  1  0
 21 22  2  0
  5 23  1  0
 23 24  2  0
 24 25  1  0
 24 26  1  0
 26 27  2  0
 27 28  1  0
 28 29  2  0
 29 30  1  0
 22  2  1  0
 22  7  1  0
 20 12  1  0
 29 23  1  0
M  END
>  <pIC50>  (239) 
8.09

>  <ChEMBL_ID>  (239) 
CHEMBL576218

>  <document_journal>  (239) 
Bioorg. Med. Chem. Lett.

>  <bao_endpoint>  (239) 
BAO_0000190

>  <potential_duplicate>  (239) 
False

>  <uo_units>  (239) 
UO_0000065

>  <canonical_smiles>  (239) 
CN1C(=O)C(=Cc2cnc(Nc3ccc(CCO)cc3)nc12)c4c(Cl)cccc4Cl

>  <parent_molecule_chembl_id>  (239) 
CHEMBL576218

>  <assay_type>  (239) 
B

>  <src_id>  (239) 
1

>  <ligand_efficiency>  (239) 
{u'le': u'0.37', u'bei': u'18.32', u'sei': u'10.32', u'lle': u'3.28'}

>  <standard_flag>  (239) 
True

>  <molecule_chembl_id>  (239) 
CHEMBL576218

>  <target_organism>  (239) 
Homo sapiens

>  <standard_units>  (239) 
nM

>  <record_id>  (239) 
863246

>  <document_chembl_id>  (239) 
CHEMBL1156739

>  <bao_format>  (239) 
BAO_0000357

>  <data_validity_description>  (239) 
None

>  <activity_id>  (239) 
2988752

>  <standard_type>  (239) 
IC50

>  <target_chembl_id>  (239) 
CHEMBL1862

>  <data_validity_comment>  (239) 
None

>  <published_value>  (239) 
8.2

>  <document_year>  (239) 
2009

>  <target_pref_name>  (239) 
Tyrosine-protein kinase ABL

>  <assay_chembl_id>  (239) 
CHEMBL1050608

>  <standard_relation>  (239) 
=

>  <assay_description>  (239) 
Inhibition of human recombinant Abl

>  <published_relation>  (239) 
=

>  <standard_value>  (239) 
8.2

>  <qudt_units>  (239) 
http://www.openphacts.org/units/Nanomolar

>  <target_tax_id>  (239) 
9606

>  <bao_label>  (239) 
single protein format

>  <published_units>  (239) 
nM

>  <pchembl_value>  (239) 
8.09

>  <published_type>  (239) 
IC50

>  <activity_comment>  (239) 
None

$$$$

     RDKit          

 28 31  0  0  0  0  0  0  0  0999 V2000
    0.0000    0.0000    0.0000 C   0  0  0  0  0  0  0  0  0  0  0  0
    0.0000    0.0000    0.0000 N   0  0  0  0  0  0  0  0  0  0  0  0
    0.0000    0.0000    0.0000 C   0  0  0  0  0  0  0  0  0  0  0  0
    0.0000    0.0000    0.0000 O   0  0  0  0  0  0  0  0  0  0  0  0
    0.0000    0.0000    0.0000 C   0  0  0  0  0  0  0  0  0  0  0  0
    0.0000    0.0000    0.0000 C   0  0  0  0  0  0  0  0  0  0  0  0
    0.0000    0.0000    0.0000 C   0  0  0  0  0  0  0  0  0  0  0  0
    0.0000    0.0000    0.0000 C   0  0  0  0  0  0  0  0  0  0  0  0
    0.0000    0.0000    0.0000 N   0  0  0  0  0  0  0  0  0  0  0  0
    0.0000    0.0000    0.0000 C   0  0  0  0  0  0  0  0  0  0  0  0
    0.0000    0.0000    0.0000 N   0  0  0  0  0  0  0  0  0  0  0  0
    0.0000    0.0000    0.0000 C   0  0  0  0  0  0  0  0  0  0  0  0
    0.0000    0.0000    0.0000 C   0  0  0  0  0  0  0  0  0  0  0  0
    0.0000    0.0000    0.0000 C   0  0  0  0  0  0  0  0  0  0  0  0
    0.0000    0.0000    0.0000 C   0  0  0  0  0  0  0  0  0  0  0  0
    0.0000    0.0000    0.0000 N   0  0  0  0  0  0  0  0  0  0  0  0
    0.0000    0.0000    0.0000 C   0  0  0  0  0  0  0  0  0  0  0  0
    0.0000    0.0000    0.0000 C   0  0  0  0  0  0  0  0  0  0  0  0
    0.0000    0.0000    0.0000 N   0  0  0  0  0  0  0  0  0  0  0  0
    0.0000    0.0000    0.0000 C   0  0  0  0  0  0  0  0  0  0  0  0
    0.0000    0.0000    0.0000 C   0  0  0  0  0  0  0  0  0  0  0  0
    0.0000    0.0000    0.0000 C   0  0  0  0  0  0  0  0  0  0  0  0
    0.0000    0.0000    0.0000 Cl  0  0  0  0  0  0  0  0  0  0  0  0
    0.0000    0.0000    0.0000 C   0  0  0  0  0  0  0  0  0  0  0  0
    0.0000    0.0000    0.0000 C   0  0  0  0  0  0  0  0  0  0  0  0
    0.0000    0.0000    0.0000 C   0  0  0  0  0  0  0  0  0  0  0  0
    0.0000    0.0000    0.0000 C   0  0  0  0  0  0  0  0  0  0  0  0
    0.0000    0.0000    0.0000 Cl  0  0  0  0  0  0  0  0  0  0  0  0
  1  2  1  0
  2  3  1  0
  3  4  2  0
  3  5  1  0
  5  6  2  0
  6  7  1  0
  7  8  2  0
  8  9  1  0
  9 10  2  0
 10 11  1  0
 11 12  1  0
 12 13  2  0
 13 14  1  0
 14 15  2  0
 15 16  1  0
 15 17  1  0
 17 18  2  0
 10 19  1  0
 19 20  2  0
  5 21  1  0
 21 22  2  0
 22 23  1  0
 22 24  1  0
 24 25  2  0
 25 26  1  0
 26 27  2  0
 27 28  1  0
 20  2  1  0
 20  7  1  0
 18 12  1  0
 27 21  1  0
M  END
>  <pIC50>  (240) 
8.64

>  <ChEMBL_ID>  (240) 
CHEMBL566636

>  <document_journal>  (240) 
Bioorg. Med. Chem. Lett.

>  <bao_endpoint>  (240) 
BAO_0000190

>  <potential_duplicate>  (240) 
False

>  <uo_units>  (240) 
UO_0000065

>  <canonical_smiles>  (240) 
CN1C(=O)C(=Cc2cnc(Nc3ccc(N)cc3)nc12)c4c(Cl)cccc4Cl

>  <parent_molecule_chembl_id>  (240) 
CHEMBL566636

>  <assay_type>  (240) 
B

>  <src_id>  (240) 
1

>  <ligand_efficiency>  (240) 
{u'le': u'0.42', u'bei': u'20.95', u'sei': u'10.27', u'lle': u'4.29'}

>  <standard_flag>  (240) 
True

>  <molecule_chembl_id>  (240) 
CHEMBL566636

>  <target_organism>  (240) 
Homo sapiens

>  <standard_units>  (240) 
nM

>  <record_id>  (240) 
863252

>  <document_chembl_id>  (240) 
CHEMBL1156739

>  <bao_format>  (240) 
BAO_0000357

>  <data_validity_description>  (240) 
None

>  <activity_id>  (240) 
2988753

>  <standard_type>  (240) 
IC50

>  <target_chembl_id>  (240) 
CHEMBL1862

>  <data_validity_comment>  (240) 
None

>  <published_value>  (240) 
2.3

>  <document_year>  (240) 
2009

>  <target_pref_name>  (240) 
Tyrosine-protein kinase ABL

>  <assay_chembl_id>  (240) 
CHEMBL1050608

>  <standard_relation>  (240) 
=

>  <assay_description>  (240) 
Inhibition of human recombinant Abl

>  <published_relation>  (240) 
=

>  <standard_value>  (240) 
2.3

>  <qudt_units>  (240) 
http://www.openphacts.org/units/Nanomolar

>  <target_tax_id>  (240) 
9606

>  <bao_label>  (240) 
single protein format

>  <published_units>  (240) 
nM

>  <pchembl_value>  (240) 
8.64

>  <published_type>  (240) 
IC50

>  <activity_comment>  (240) 
None

$$$$

     RDKit          

 31 34  0  0  0  0  0  0  0  0999 V2000
    0.0000    0.0000    0.0000 C   0  0  0  0  0  0  0  0  0  0  0  0
    0.0000    0.0000    0.0000 N   0  0  0  0  0  0  0  0  0  0  0  0
    0.0000    0.0000    0.0000 C   0  0  0  0  0  0  0  0  0  0  0  0
    0.0000    0.0000    0.0000 O   0  0  0  0  0  0  0  0  0  0  0  0
    0.0000    0.0000    0.0000 C   0  0  0  0  0  0  0  0  0  0  0  0
    0.0000    0.0000    0.0000 C   0  0  0  0  0  0  0  0  0  0  0  0
    0.0000    0.0000    0.0000 C   0  0  0  0  0  0  0  0  0  0  0  0
    0.0000    0.0000    0.0000 C   0  0  0  0  0  0  0  0  0  0  0  0
    0.0000    0.0000    0.0000 N   0  0  0  0  0  0  0  0  0  0  0  0
    0.0000    0.0000    0.0000 C   0  0  0  0  0  0  0  0  0  0  0  0
    0.0000    0.0000    0.0000 N   0  0  0  0  0  0  0  0  0  0  0  0
    0.0000    0.0000    0.0000 C   0  0  0  0  0  0  0  0  0  0  0  0
    0.0000    0.0000    0.0000 C   0  0  0  0  0  0  0  0  0  0  0  0
    0.0000    0.0000    0.0000 C   0  0  0  0  0  0  0  0  0  0  0  0
    0.0000    0.0000    0.0000 C   0  0  0  0  0  0  0  0  0  0  0  0
    0.0000    0.0000    0.0000 N   0  0  0  0  0  0  0  0  0  0  0  0
    0.0000    0.0000    0.0000 C   0  0  0  0  0  0  0  0  0  0  0  0
    0.0000    0.0000    0.0000 O   0  0  0  0  0  0  0  0  0  0  0  0
    0.0000    0.0000    0.0000 C   0  0  0  0  0  0  0  0  0  0  0  0
    0.0000    0.0000    0.0000 C   0  0  0  0  0  0  0  0  0  0  0  0
    0.0000    0.0000    0.0000 C   0  0  0  0  0  0  0  0  0  0  0  0
    0.0000    0.0000    0.0000 N   0  0  0  0  0  0  0  0  0  0  0  0
    0.0000    0.0000    0.0000 C   0  0  0  0  0  0  0  0  0  0  0  0
    0.0000    0.0000    0.0000 C   0  0  0  0  0  0  0  0  0  0  0  0
    0.0000    0.0000    0.0000 C   0  0  0  0  0  0  0  0  0  0  0  0
    0.0000    0.0000    0.0000 Cl  0  0  0  0  0  0  0  0  0  0  0  0
    0.0000    0.0000    0.0000 C   0  0  0  0  0  0  0  0  0  0  0  0
    0.0000    0.0000    0.0000 C   0  0  0  0  0  0  0  0  0  0  0  0
    0.0000    0.0000    0.0000 C   0  0  0  0  0  0  0  0  0  0  0  0
    0.0000    0.0000    0.0000 C   0  0  0  0  0  0  0  0  0  0  0  0
    0.0000    0.0000    0.0000 Cl  0  0  0  0  0  0  0  0  0  0  0  0
  1  2  1  0
  2  3  1  0
  3  4  2  0
  3  5  1  0
  5  6  2  0
  6  7  1  0
  7  8  2  0
  8  9  1  0
  9 10  2  0
 10 11  1  0
 11 12  1  0
 12 13  2  0
 13 14  1  0
 14 15  2  0
 15 16  1  0
 16 17  1  0
 17 18  2  0
 17 19  1  0
 15 20  1  0
 20 21  2  0
 10 22  1  0
 22 23  2  0
  5 24  1  0
 24 25  2  0
 25 26  1  0
 25 27  1  0
 27 28  2  0
 28 29  1  0
 29 30  2  0
 30 31  1  0
 23  2  1  0
 23  7  1  0
 21 12  1  0
 30 24  1  0
M  END
>  <pIC50>  (241) 
8.32

>  <ChEMBL_ID>  (241) 
CHEMBL566850

>  <document_journal>  (241) 
Bioorg. Med. Chem. Lett.

>  <bao_endpoint>  (241) 
BAO_0000190

>  <potential_duplicate>  (241) 
False

>  <uo_units>  (241) 
UO_0000065

>  <canonical_smiles>  (241) 
CN1C(=O)C(=Cc2cnc(Nc3ccc(NC(=O)C)cc3)nc12)c4c(Cl)cccc4Cl

>  <parent_molecule_chembl_id>  (241) 
CHEMBL566850

>  <assay_type>  (241) 
B

>  <src_id>  (241) 
1

>  <ligand_efficiency>  (241) 
{u'le': u'0.37', u'bei': u'18.31', u'sei': u'9.54', u'lle': u'4.1'}

>  <standard_flag>  (241) 
True

>  <molecule_chembl_id>  (241) 
CHEMBL566850

>  <target_organism>  (241) 
Homo sapiens

>  <standard_units>  (241) 
nM

>  <record_id>  (241) 
863253

>  <document_chembl_id>  (241) 
CHEMBL1156739

>  <bao_format>  (241) 
BAO_0000357

>  <data_validity_description>  (241) 
None

>  <activity_id>  (241) 
2988754

>  <standard_type>  (241) 
IC50

>  <target_chembl_id>  (241) 
CHEMBL1862

>  <data_validity_comment>  (241) 
None

>  <published_value>  (241) 
4.8

>  <document_year>  (241) 
2009

>  <target_pref_name>  (241) 
Tyrosine-protein kinase ABL

>  <assay_chembl_id>  (241) 
CHEMBL1050608

>  <standard_relation>  (241) 
=

>  <assay_description>  (241) 
Inhibition of human recombinant Abl

>  <published_relation>  (241) 
=

>  <standard_value>  (241) 
4.8

>  <qudt_units>  (241) 
http://www.openphacts.org/units/Nanomolar

>  <target_tax_id>  (241) 
9606

>  <bao_label>  (241) 
single protein format

>  <published_units>  (241) 
nM

>  <pchembl_value>  (241) 
8.32

>  <published_type>  (241) 
IC50

>  <activity_comment>  (241) 
None

$$$$

     RDKit          

 32 35  0  0  0  0  0  0  0  0999 V2000
    0.0000    0.0000    0.0000 C   0  0  0  0  0  0  0  0  0  0  0  0
    0.0000    0.0000    0.0000 N   0  0  0  0  0  0  0  0  0  0  0  0
    0.0000    0.0000    0.0000 C   0  0  0  0  0  0  0  0  0  0  0  0
    0.0000    0.0000    0.0000 O   0  0  0  0  0  0  0  0  0  0  0  0
    0.0000    0.0000    0.0000 C   0  0  0  0  0  0  0  0  0  0  0  0
    0.0000    0.0000    0.0000 C   0  0  0  0  0  0  0  0  0  0  0  0
    0.0000    0.0000    0.0000 C   0  0  0  0  0  0  0  0  0  0  0  0
    0.0000    0.0000    0.0000 C   0  0  0  0  0  0  0  0  0  0  0  0
    0.0000    0.0000    0.0000 N   0  0  0  0  0  0  0  0  0  0  0  0
    0.0000    0.0000    0.0000 C   0  0  0  0  0  0  0  0  0  0  0  0
    0.0000    0.0000    0.0000 N   0  0  0  0  0  0  0  0  0  0  0  0
    0.0000    0.0000    0.0000 C   0  0  0  0  0  0  0  0  0  0  0  0
    0.0000    0.0000    0.0000 C   0  0  0  0  0  0  0  0  0  0  0  0
    0.0000    0.0000    0.0000 C   0  0  0  0  0  0  0  0  0  0  0  0
    0.0000    0.0000    0.0000 C   0  0  0  0  0  0  0  0  0  0  0  0
    0.0000    0.0000    0.0000 N   0  0  0  0  0  0  0  0  0  0  0  0
    0.0000    0.0000    0.0000 C   0  0  0  0  0  0  0  0  0  0  0  0
    0.0000    0.0000    0.0000 O   0  0  0  0  0  0  0  0  0  0  0  0
    0.0000    0.0000    0.0000 C   0  0  0  0  0  0  0  0  0  0  0  0
    0.0000    0.0000    0.0000 Cl  0  0  0  0  0  0  0  0  0  0  0  0
    0.0000    0.0000    0.0000 C   0  0  0  0  0  0  0  0  0  0  0  0
    0.0000    0.0000    0.0000 C   0  0  0  0  0  0  0  0  0  0  0  0
    0.0000    0.0000    0.0000 N   0  0  0  0  0  0  0  0  0  0  0  0
    0.0000    0.0000    0.0000 C   0  0  0  0  0  0  0  0  0  0  0  0
    0.0000    0.0000    0.0000 C   0  0  0  0  0  0  0  0  0  0  0  0
    0.0000    0.0000    0.0000 C   0  0  0  0  0  0  0  0  0  0  0  0
    0.0000    0.0000    0.0000 Cl  0  0  0  0  0  0  0  0  0  0  0  0
    0.0000    0.0000    0.0000 C   0  0  0  0  0  0  0  0  0  0  0  0
    0.0000    0.0000    0.0000 C   0  0  0  0  0  0  0  0  0  0  0  0
    0.0000    0.0000    0.0000 C   0  0  0  0  0  0  0  0  0  0  0  0
    0.0000    0.0000    0.0000 C   0  0  0  0  0  0  0  0  0  0  0  0
    0.0000    0.0000    0.0000 Cl  0  0  0  0  0  0  0  0  0  0  0  0
  1  2  1  0
  2  3  1  0
  3  4  2  0
  3  5  1  0
  5  6  2  0
  6  7  1  0
  7  8  2  0
  8  9  1  0
  9 10  2  0
 10 11  1  0
 11 12  1  0
 12 13  2  0
 13 14  1  0
 14 15  2  0
 15 16  1  0
 16 17  1  0
 17 18  2  0
 17 19  1  0
 19 20  1  0
 15 21  1  0
 21 22  2  0
 10 23  1  0
 23 24  2  0
  5 25  1  0
 25 26  2  0
 26 27  1  0
 26 28  1  0
 28 29  2  0
 29 30  1  0
 30 31  2  0
 31 32  1  0
 24  2  1  0
 24  7  1  0
 22 12  1  0
 31 25  1  0
M  END
>  <pIC50>  (242) 
8.12

>  <ChEMBL_ID>  (242) 
CHEMBL565587

>  <document_journal>  (242) 
Bioorg. Med. Chem. Lett.

>  <bao_endpoint>  (242) 
BAO_0000190

>  <potential_duplicate>  (242) 
False

>  <uo_units>  (242) 
UO_0000065

>  <canonical_smiles>  (242) 
CN1C(=O)C(=Cc2cnc(Nc3ccc(NC(=O)CCl)cc3)nc12)c4c(Cl)cccc4Cl

>  <parent_molecule_chembl_id>  (242) 
CHEMBL565587

>  <assay_type>  (242) 
B

>  <src_id>  (242) 
1

>  <ligand_efficiency>  (242) 
{u'le': u'0.35', u'bei': u'16.61', u'sei': u'9.31', u'lle': u'3.37'}

>  <standard_flag>  (242) 
True

>  <molecule_chembl_id>  (242) 
CHEMBL565587

>  <target_organism>  (242) 
Homo sapiens

>  <standard_units>  (242) 
nM

>  <record_id>  (242) 
863283

>  <document_chembl_id>  (242) 
CHEMBL1156739

>  <bao_format>  (242) 
BAO_0000357

>  <data_validity_description>  (242) 
None

>  <activity_id>  (242) 
2988755

>  <standard_type>  (242) 
IC50

>  <target_chembl_id>  (242) 
CHEMBL1862

>  <data_validity_comment>  (242) 
None

>  <published_value>  (242) 
7.6

>  <document_year>  (242) 
2009

>  <target_pref_name>  (242) 
Tyrosine-protein kinase ABL

>  <assay_chembl_id>  (242) 
CHEMBL1050608

>  <standard_relation>  (242) 
=

>  <assay_description>  (242) 
Inhibition of human recombinant Abl

>  <published_relation>  (242) 
=

>  <standard_value>  (242) 
7.6

>  <qudt_units>  (242) 
http://www.openphacts.org/units/Nanomolar

>  <target_tax_id>  (242) 
9606

>  <bao_label>  (242) 
single protein format

>  <published_units>  (242) 
nM

>  <pchembl_value>  (242) 
8.12

>  <published_type>  (242) 
IC50

>  <activity_comment>  (242) 
None

$$$$

     RDKit          

 28 31  0  0  0  0  0  0  0  0999 V2000
    0.0000    0.0000    0.0000 C   0  0  0  0  0  0  0  0  0  0  0  0
    0.0000    0.0000    0.0000 N   0  0  0  0  0  0  0  0  0  0  0  0
    0.0000    0.0000    0.0000 C   0  0  0  0  0  0  0  0  0  0  0  0
    0.0000    0.0000    0.0000 O   0  0  0  0  0  0  0  0  0  0  0  0
    0.0000    0.0000    0.0000 C   0  0  0  0  0  0  0  0  0  0  0  0
    0.0000    0.0000    0.0000 C   0  0  0  0  0  0  0  0  0  0  0  0
    0.0000    0.0000    0.0000 C   0  0  0  0  0  0  0  0  0  0  0  0
    0.0000    0.0000    0.0000 C   0  0  0  0  0  0  0  0  0  0  0  0
    0.0000    0.0000    0.0000 N   0  0  0  0  0  0  0  0  0  0  0  0
    0.0000    0.0000    0.0000 C   0  0  0  0  0  0  0  0  0  0  0  0
    0.0000    0.0000    0.0000 N   0  0  0  0  0  0  0  0  0  0  0  0
    0.0000    0.0000    0.0000 C   0  0  0  0  0  0  0  0  0  0  0  0
    0.0000    0.0000    0.0000 C   0  0  0  0  0  0  0  0  0  0  0  0
    0.0000    0.0000    0.0000 C   0  0  0  0  0  0  0  0  0  0  0  0
    0.0000    0.0000    0.0000 C   0  0  0  0  0  0  0  0  0  0  0  0
    0.0000    0.0000    0.0000 C   0  0  0  0  0  0  0  0  0  0  0  0
    0.0000    0.0000    0.0000 O   0  0  0  0  0  0  0  0  0  0  0  0
    0.0000    0.0000    0.0000 C   0  0  0  0  0  0  0  0  0  0  0  0
    0.0000    0.0000    0.0000 N   0  0  0  0  0  0  0  0  0  0  0  0
    0.0000    0.0000    0.0000 C   0  0  0  0  0  0  0  0  0  0  0  0
    0.0000    0.0000    0.0000 C   0  0  0  0  0  0  0  0  0  0  0  0
    0.0000    0.0000    0.0000 C   0  0  0  0  0  0  0  0  0  0  0  0
    0.0000    0.0000    0.0000 Cl  0  0  0  0  0  0  0  0  0  0  0  0
    0.0000    0.0000    0.0000 C   0  0  0  0  0  0  0  0  0  0  0  0
    0.0000    0.0000    0.0000 C   0  0  0  0  0  0  0  0  0  0  0  0
    0.0000    0.0000    0.0000 C   0  0  0  0  0  0  0  0  0  0  0  0
    0.0000    0.0000    0.0000 C   0  0  0  0  0  0  0  0  0  0  0  0
    0.0000    0.0000    0.0000 Cl  0  0  0  0  0  0  0  0  0  0  0  0
  1  2  1  0
  2  3  1  0
  3  4  2  0
  3  5  1  0
  5  6  2  0
  6  7  1  0
  7  8  2  0
  8  9  1  0
  9 10  2  0
 10 11  1  0
 11 12  1  0
 12 13  2  0
 13 14  1  0
 14 15  2  0
 15 16  1  0
 16 17  1  0
 16 18  2  0
 10 19  1  0
 19 20  2  0
  5 21  1  0
 21 22  2  0
 22 23  1  0
 22 24  1  0
 24 25  2  0
 25 26  1  0
 26 27  2  0
 27 28  1  0
 20  2  1  0
 20  7  1  0
 18 12  1  0
 27 21  1  0
M  END
>  <pIC50>  (243) 
8.59

>  <ChEMBL_ID>  (243) 
CHEMBL321193

>  <document_journal>  (243) 
Bioorg. Med. Chem. Lett.

>  <bao_endpoint>  (243) 
BAO_0000190

>  <potential_duplicate>  (243) 
False

>  <uo_units>  (243) 
UO_0000065

>  <canonical_smiles>  (243) 
CN1C(=O)C(=Cc2cnc(Nc3cccc(O)c3)nc12)c4c(Cl)cccc4Cl

>  <parent_molecule_chembl_id>  (243) 
CHEMBL321193

>  <assay_type>  (243) 
B

>  <src_id>  (243) 
1

>  <ligand_efficiency>  (243) 
{u'le': u'0.42', u'bei': u'20.77', u'sei': u'10.96', u'lle': u'3.73'}

>  <standard_flag>  (243) 
True

>  <molecule_chembl_id>  (243) 
CHEMBL321193

>  <target_organism>  (243) 
Homo sapiens

>  <standard_units>  (243) 
nM

>  <record_id>  (243) 
863280

>  <document_chembl_id>  (243) 
CHEMBL1156739

>  <bao_format>  (243) 
BAO_0000357

>  <data_validity_description>  (243) 
None

>  <activity_id>  (243) 
2988756

>  <standard_type>  (243) 
IC50

>  <target_chembl_id>  (243) 
CHEMBL1862

>  <data_validity_comment>  (243) 
None

>  <published_value>  (243) 
2.6

>  <document_year>  (243) 
2009

>  <target_pref_name>  (243) 
Tyrosine-protein kinase ABL

>  <assay_chembl_id>  (243) 
CHEMBL1050608

>  <standard_relation>  (243) 
=

>  <assay_description>  (243) 
Inhibition of human recombinant Abl

>  <published_relation>  (243) 
=

>  <standard_value>  (243) 
2.6

>  <qudt_units>  (243) 
http://www.openphacts.org/units/Nanomolar

>  <target_tax_id>  (243) 
9606

>  <bao_label>  (243) 
single protein format

>  <published_units>  (243) 
nM

>  <pchembl_value>  (243) 
8.59

>  <published_type>  (243) 
IC50

>  <activity_comment>  (243) 
None

$$$$

     RDKit          

 33 38  0  0  0  0  0  0  0  0999 V2000
    0.0000    0.0000    0.0000 C   0  0  0  0  0  0  0  0  0  0  0  0
    0.0000    0.0000    0.0000 N   0  0  0  0  0  0  0  0  0  0  0  0
    0.0000    0.0000    0.0000 C   0  0  0  0  0  0  0  0  0  0  0  0
    0.0000    0.0000    0.0000 C   0  0  0  0  0  0  0  0  0  0  0  0
    0.0000    0.0000    0.0000 N   0  0  0  0  0  0  0  0  0  0  0  0
    0.0000    0.0000    0.0000 C   0  0  0  0  0  0  0  0  0  0  0  0
    0.0000    0.0000    0.0000 C   0  0  0  0  0  0  0  0  0  0  0  0
    0.0000    0.0000    0.0000 C   0  0  0  0  0  0  0  0  0  0  0  0
    0.0000    0.0000    0.0000 N   0  0  0  0  0  0  0  0  0  0  0  0
    0.0000    0.0000    0.0000 C   0  0  0  0  0  0  0  0  0  0  0  0
    0.0000    0.0000    0.0000 C   0  0  0  0  0  0  0  0  0  0  0  0
    0.0000    0.0000    0.0000 C   0  0  0  0  0  0  0  0  0  0  0  0
    0.0000    0.0000    0.0000 C   0  0  0  0  0  0  0  0  0  0  0  0
    0.0000    0.0000    0.0000 O   0  0  0  0  0  0  0  0  0  0  0  0
    0.0000    0.0000    0.0000 N   0  0  0  0  0  0  0  0  0  0  0  0
    0.0000    0.0000    0.0000 C   0  0  0  0  0  0  0  0  0  0  0  0
    0.0000    0.0000    0.0000 O   0  0  0  0  0  0  0  0  0  0  0  0
    0.0000    0.0000    0.0000 C   0  0  0  0  0  0  0  0  0  0  0  0
    0.0000    0.0000    0.0000 C   0  0  0  0  0  0  0  0  0  0  0  0
    0.0000    0.0000    0.0000 N   0  0  0  0  0  0  0  0  0  0  0  0
    0.0000    0.0000    0.0000 C   0  0  0  0  0  0  0  0  0  0  0  0
    0.0000    0.0000    0.0000 C   0  0  0  0  0  0  0  0  0  0  0  0
    0.0000    0.0000    0.0000 C   0  0  0  0  0  0  0  0  0  0  0  0
    0.0000    0.0000    0.0000 C   0  0  0  0  0  0  0  0  0  0  0  0
    0.0000    0.0000    0.0000 C   0  0  0  0  0  0  0  0  0  0  0  0
    0.0000    0.0000    0.0000 C   0  0  0  0  0  0  0  0  0  0  0  0
    0.0000    0.0000    0.0000 C   0  0  0  0  0  0  0  0  0  0  0  0
    0.0000    0.0000    0.0000 C   0  0  0  0  0  0  0  0  0  0  0  0
    0.0000    0.0000    0.0000 C   0  0  0  0  0  0  0  0  0  0  0  0
    0.0000    0.0000    0.0000 C   0  0  0  0  0  0  0  0  0  0  0  0
    0.0000    0.0000    0.0000 C   0  0  0  0  0  0  0  0  0  0  0  0
    0.0000    0.0000    0.0000 C   0  0  0  0  0  0  0  0  0  0  0  0
    0.0000    0.0000    0.0000 N   0  0  0  0  0  0  0  0  0  0  0  0
  1  2  1  0
  2  3  1  0
  3  4  1  0
  4  5  1  0
  5  6  1  0
  6  7  1  0
  5  8  1  0
  8  9  2  0
  9 10  1  0
 10 11  1  0
 11 12  2  0
 12 13  1  0
 13 14  2  0
 13 15  1  0
 15 16  1  0
 16 17  2  0
 12 18  1  0
 18 19  2  0
 19 20  1  0
 20 21  1  0
 21 22  2  0
 22 23  1  0
 23 24  2  0
 24 25  1  0
 25 26  2  0
 10 27  2  0
 27 28  1  0
 28 29  2  0
 29 30  1  0
 30 31  2  0
 31 32  1  0
 32 33  2  0
  7  2  1  0
 33  8  1  0
 16 11  1  0
 26 18  1  0
 26 21  1  0
 32 27  1  0
M  END
>  <pIC50>  (244) 
5.48

>  <ChEMBL_ID>  (244) 
CHEMBL565612

>  <document_journal>  (244) 
J. Med. Chem.

>  <bao_endpoint>  (244) 
BAO_0000190

>  <potential_duplicate>  (244) 
False

>  <uo_units>  (244) 
UO_0000065

>  <canonical_smiles>  (244) 
CN1CCN(CC1)c2nc(C3=C(C(=O)NC3=O)c4c[nH]c5ccccc45)c6ccccc6n2

>  <parent_molecule_chembl_id>  (244) 
CHEMBL565612

>  <assay_type>  (244) 
B

>  <src_id>  (244) 
1

>  <ligand_efficiency>  (244) 
{u'le': u'0.23', u'bei': u'12.5', u'sei': u'5.82', u'lle': u'2'}

>  <standard_flag>  (244) 
True

>  <molecule_chembl_id>  (244) 
CHEMBL565612

>  <target_organism>  (244) 
Homo sapiens

>  <standard_units>  (244) 
nM

>  <record_id>  (244) 
863023

>  <document_chembl_id>  (244) 
CHEMBL1156112

>  <bao_format>  (244) 
BAO_0000357

>  <data_validity_description>  (244) 
None

>  <activity_id>  (244) 
2992488

>  <standard_type>  (244) 
IC50

>  <target_chembl_id>  (244) 
CHEMBL1862

>  <data_validity_comment>  (244) 
None

>  <published_value>  (244) 
3300

>  <document_year>  (244) 
2009

>  <target_pref_name>  (244) 
Tyrosine-protein kinase ABL

>  <assay_chembl_id>  (244) 
CHEMBL1040120

>  <standard_relation>  (244) 
=

>  <assay_description>  (244) 
Inhibition of human recombinant Abl

>  <published_relation>  (244) 
=

>  <standard_value>  (244) 
3300

>  <qudt_units>  (244) 
http://www.openphacts.org/units/Nanomolar

>  <target_tax_id>  (244) 
9606

>  <bao_label>  (244) 
single protein format

>  <published_units>  (244) 
nM

>  <pchembl_value>  (244) 
5.48

>  <published_type>  (244) 
IC50

>  <activity_comment>  (244) 
None

$$$$

     RDKit          

 30 33  0  0  0  0  0  0  0  0999 V2000
    0.0000    0.0000    0.0000 C   0  0  0  0  0  0  0  0  0  0  0  0
    0.0000    0.0000    0.0000 C   0  0  0  0  0  0  0  0  0  0  0  0
    0.0000    0.0000    0.0000 C   0  0  0  0  0  0  0  0  0  0  0  0
    0.0000    0.0000    0.0000 N   0  0  0  0  0  0  0  0  0  0  0  0
    0.0000    0.0000    0.0000 C   0  0  0  0  0  0  0  0  0  0  0  0
    0.0000    0.0000    0.0000 C   0  0  0  0  0  0  0  0  0  0  0  0
    0.0000    0.0000    0.0000 C   0  0  0  0  0  0  0  0  0  0  0  0
    0.0000    0.0000    0.0000 C   0  0  0  0  0  0  0  0  0  0  0  0
    0.0000    0.0000    0.0000 C   0  0  0  0  0  0  0  0  0  0  0  0
    0.0000    0.0000    0.0000 C   0  0  0  0  0  0  0  0  0  0  0  0
    0.0000    0.0000    0.0000 N   0  0  0  0  0  0  0  0  0  0  0  0
    0.0000    0.0000    0.0000 C   0  0  0  0  0  0  0  0  0  0  0  0
    0.0000    0.0000    0.0000 C   0  0  0  0  0  0  0  0  0  0  0  0
    0.0000    0.0000    0.0000 C   0  0  0  0  0  0  0  0  0  0  0  0
    0.0000    0.0000    0.0000 C   0  0  0  0  0  0  0  0  0  0  0  0
    0.0000    0.0000    0.0000 N   0  0  0  0  0  0  0  0  0  0  0  0
    0.0000    0.0000    0.0000 C   0  0  0  0  0  0  0  0  0  0  0  0
    0.0000    0.0000    0.0000 C   0  0  0  0  0  0  0  0  0  0  0  0
    0.0000    0.0000    0.0000 N   0  0  0  0  0  0  0  0  0  0  0  0
    0.0000    0.0000    0.0000 C   0  0  0  0  0  0  0  0  0  0  0  0
    0.0000    0.0000    0.0000 C   0  0  0  0  0  0  0  0  0  0  0  0
    0.0000    0.0000    0.0000 C   0  0  0  0  0  0  0  0  0  0  0  0
    0.0000    0.0000    0.0000 N   0  0  0  0  0  0  0  0  0  0  0  0
    0.0000    0.0000    0.0000 C   0  0  0  0  0  0  0  0  0  0  0  0
    0.0000    0.0000    0.0000 C   0  0  0  0  0  0  0  0  0  0  0  0
    0.0000    0.0000    0.0000 C   0  0  0  0  0  0  0  0  0  0  0  0
    0.0000    0.0000    0.0000 N   0  0  0  0  0  0  0  0  0  0  0  0
    0.0000    0.0000    0.0000 C   0  0  0  0  0  0  0  0  0  0  0  0
    0.0000    0.0000    0.0000 C   0  0  0  0  0  0  0  0  0  0  0  0
    0.0000    0.0000    0.0000 C   0  0  0  0  0  0  0  0  0  0  0  0
  1  2  1  0
  2  3  2  0
  3  4  1  0
  4  5  1  0
  5  6  1  0
  6  7  1  0
  7  8  2  0
  8  9  1  0
  9 10  1  0
 10 11  1  0
 11 12  1  0
 12 13  1  0
 13 14  1  0
 14 15  1  0
 15 16  1  0
 15 17  1  0
  6 18  2  0
 18 19  1  0
 19 20  2  0
 20 21  1  0
 21 22  1  0
 22 23  3  0
  3 24  1  0
 24 25  2  0
 25 26  1  0
 26 27  1  0
 27 28  1  0
 28 29  2  0
 29 30  1  0
 30  2  1  0
 21  5  2  0
 17 11  1  0
 30 26  2  0
M  END
>  <pIC50>  (245) 
5.47

>  <ChEMBL_ID>  (245) 
CHEMBL606245

>  <document_journal>  (245) 
Bioorg. Med. Chem.

>  <bao_endpoint>  (245) 
BAO_0000190

>  <potential_duplicate>  (245) 
False

>  <uo_units>  (245) 
UO_0000065

>  <canonical_smiles>  (245) 
Cc1c(Nc2c(\C=C\CCN3CCC[C@@H](N)C3)cncc2C#N)ccc4[nH]ccc14

>  <parent_molecule_chembl_id>  (245) 
CHEMBL606245

>  <assay_type>  (245) 
B

>  <src_id>  (245) 
1

>  <ligand_efficiency>  (245) 
{u'le': u'0.25', u'bei': u'13.65', u'sei': u'5.83', u'lle': u'2.06'}

>  <standard_flag>  (245) 
True

>  <molecule_chembl_id>  (245) 
CHEMBL606245

>  <target_organism>  (245) 
Homo sapiens

>  <standard_units>  (245) 
nM

>  <record_id>  (245) 
876940

>  <document_chembl_id>  (245) 
CHEMBL1153090

>  <bao_format>  (245) 
BAO_0000357

>  <data_validity_description>  (245) 
None

>  <activity_id>  (245) 
3089513

>  <standard_type>  (245) 
IC50

>  <target_chembl_id>  (245) 
CHEMBL1862

>  <data_validity_comment>  (245) 
None

>  <published_value>  (245) 
3400

>  <document_year>  (245) 
2009

>  <target_pref_name>  (245) 
Tyrosine-protein kinase ABL

>  <assay_chembl_id>  (245) 
CHEMBL1070554

>  <standard_relation>  (245) 
=

>  <assay_description>  (245) 
Inhibition of Abl

>  <published_relation>  (245) 
=

>  <standard_value>  (245) 
3400

>  <qudt_units>  (245) 
http://www.openphacts.org/units/Nanomolar

>  <target_tax_id>  (245) 
9606

>  <bao_label>  (245) 
single protein format

>  <published_units>  (245) 
nM

>  <pchembl_value>  (245) 
5.47

>  <published_type>  (245) 
IC50

>  <activity_comment>  (245) 
None

$$$$

     RDKit          

 23 25  0  0  0  0  0  0  0  0999 V2000
    0.0000    0.0000    0.0000 C   0  0  0  0  0  0  0  0  0  0  0  0
    0.0000    0.0000    0.0000 C   0  0  0  0  0  0  0  0  0  0  0  0
    0.0000    0.0000    0.0000 O   0  0  0  0  0  0  0  0  0  0  0  0
    0.0000    0.0000    0.0000 C   0  0  0  0  0  0  0  0  0  0  0  0
    0.0000    0.0000    0.0000 O   0  0  0  0  0  0  0  0  0  0  0  0
    0.0000    0.0000    0.0000 C   0  0  0  0  0  0  0  0  0  0  0  0
    0.0000    0.0000    0.0000 C   0  0  0  0  0  0  0  0  0  0  0  0
    0.0000    0.0000    0.0000 C   0  0  0  0  0  0  0  0  0  0  0  0
    0.0000    0.0000    0.0000 N   0  0  0  0  0  0  0  0  0  0  0  0
    0.0000    0.0000    0.0000 C   0  0  0  0  0  0  0  0  0  0  0  0
    0.0000    0.0000    0.0000 C   0  0  0  0  0  0  0  0  0  0  0  0
    0.0000    0.0000    0.0000 C   0  0  0  0  0  0  0  0  0  0  0  0
    0.0000    0.0000    0.0000 C   0  0  0  0  0  0  0  0  0  0  0  0
    0.0000    0.0000    0.0000 O   0  0  0  0  0  0  0  0  0  0  0  0
    0.0000    0.0000    0.0000 N   0  0  0  0  0  0  0  0  0  0  0  0
    0.0000    0.0000    0.0000 C   0  0  0  0  0  0  0  0  0  0  0  0
    0.0000    0.0000    0.0000 C   0  0  0  0  0  0  0  0  0  0  0  0
    0.0000    0.0000    0.0000 C   0  0  0  0  0  0  0  0  0  0  0  0
    0.0000    0.0000    0.0000 C   0  0  0  0  0  0  0  0  0  0  0  0
    0.0000    0.0000    0.0000 C   0  0  0  0  0  0  0  0  0  0  0  0
    0.0000    0.0000    0.0000 C   0  0  0  0  0  0  0  0  0  0  0  0
    0.0000    0.0000    0.0000 C   0  0  0  0  0  0  0  0  0  0  0  0
    0.0000    0.0000    0.0000 C   0  0  0  0  0  0  0  0  0  0  0  0
  1  2  1  0
  2  3  1  0
  3  4  1  0
  4  5  2  0
  4  6  1  0
  6  7  2  0
  7  8  1  0
  7  9  1  0
  9 10  1  0
 10 11  1  0
 11 12  2  0
 12 13  1  0
 13 14  2  0
 13 15  1  0
 15 16  1  0
 16 17  2  0
 17 18  1  0
 18 19  2  0
 19 20  1  0
 20 21  2  0
 10 22  2  0
 22 23  1  0
 22  6  1  0
 12 21  1  0
 21 16  1  0
M  END
>  <pIC50>  (246) 
4.72

>  <ChEMBL_ID>  (246) 
CHEMBL86943

>  <document_journal>  (246) 
Bioorg. Med. Chem.

>  <bao_endpoint>  (246) 
BAO_0000190

>  <potential_duplicate>  (246) 
False

>  <uo_units>  (246) 
UO_0000065

>  <canonical_smiles>  (246) 
CCOC(=O)c1c(C)[nH]c(\C=C\2/C(=O)Nc3ccccc23)c1C

>  <parent_molecule_chembl_id>  (246) 
CHEMBL86943

>  <assay_type>  (246) 
B

>  <src_id>  (246) 
1

>  <ligand_efficiency>  (246) 
{u'le': u'0.28', u'bei': u'15.21', u'sei': u'6.63', u'lle': u'1.77'}

>  <standard_flag>  (246) 
True

>  <molecule_chembl_id>  (246) 
CHEMBL86943

>  <target_organism>  (246) 
Homo sapiens

>  <standard_units>  (246) 
nM

>  <record_id>  (246) 
887534

>  <document_chembl_id>  (246) 
CHEMBL1156925

>  <bao_format>  (246) 
BAO_0000357

>  <data_validity_description>  (246) 
None

>  <activity_id>  (246) 
3101493

>  <standard_type>  (246) 
IC50

>  <target_chembl_id>  (246) 
CHEMBL1862

>  <data_validity_comment>  (246) 
None

>  <published_value>  (246) 
19

>  <document_year>  (246) 
2010

>  <target_pref_name>  (246) 
Tyrosine-protein kinase ABL

>  <assay_chembl_id>  (246) 
CHEMBL1071419

>  <standard_relation>  (246) 
=

>  <assay_description>  (246) 
Inhibition of ABL by ELISA-based kinase assay

>  <published_relation>  (246) 
=

>  <standard_value>  (246) 
19000

>  <qudt_units>  (246) 
http://www.openphacts.org/units/Nanomolar

>  <target_tax_id>  (246) 
9606

>  <bao_label>  (246) 
single protein format

>  <published_units>  (246) 
uM

>  <pchembl_value>  (246) 
4.72

>  <published_type>  (246) 
IC50

>  <activity_comment>  (246) 
None

$$$$

     RDKit          

 18 20  0  0  0  0  0  0  0  0999 V2000
    0.0000    0.0000    0.0000 C   0  0  0  0  0  0  0  0  0  0  0  0
    0.0000    0.0000    0.0000 C   0  0  0  0  0  0  0  0  0  0  0  0
    0.0000    0.0000    0.0000 C   0  0  0  0  0  0  0  0  0  0  0  0
    0.0000    0.0000    0.0000 C   0  0  0  0  0  0  0  0  0  0  0  0
    0.0000    0.0000    0.0000 C   0  0  0  0  0  0  0  0  0  0  0  0
    0.0000    0.0000    0.0000 C   0  0  0  0  0  0  0  0  0  0  0  0
    0.0000    0.0000    0.0000 C   0  0  0  0  0  0  0  0  0  0  0  0
    0.0000    0.0000    0.0000 C   0  0  0  0  0  0  0  0  0  0  0  0
    0.0000    0.0000    0.0000 C   0  0  0  0  0  0  0  0  0  0  0  0
    0.0000    0.0000    0.0000 O   0  0  0  0  0  0  0  0  0  0  0  0
    0.0000    0.0000    0.0000 N   0  0  0  0  0  0  0  0  0  0  0  0
    0.0000    0.0000    0.0000 C   0  0  0  0  0  0  0  0  0  0  0  0
    0.0000    0.0000    0.0000 C   0  0  0  0  0  0  0  0  0  0  0  0
    0.0000    0.0000    0.0000 C   0  0  0  0  0  0  0  0  0  0  0  0
    0.0000    0.0000    0.0000 C   0  0  0  0  0  0  0  0  0  0  0  0
    0.0000    0.0000    0.0000 C   0  0  0  0  0  0  0  0  0  0  0  0
    0.0000    0.0000    0.0000 C   0  0  0  0  0  0  0  0  0  0  0  0
    0.0000    0.0000    0.0000 N   0  0  0  0  0  0  0  0  0  0  0  0
  1  2  1  0
  2  3  2  0
  3  4  1  0
  4  5  1  0
  4  6  2  0
  6  7  1  0
  7  8  2  0
  8  9  1  0
  9 10  2  0
  9 11  1  0
 11 12  1  0
 12 13  2  0
 13 14  1  0
 14 15  2  0
 15 16  1  0
 16 17  2  0
  6 18  1  0
 18  2  1  0
  8 17  1  0
 17 12  1  0
M  END
>  <pIC50>  (247) 
4.96

>  <ChEMBL_ID>  (247) 
CHEMBL276711

>  <document_journal>  (247) 
Bioorg. Med. Chem.

>  <bao_endpoint>  (247) 
BAO_0000190

>  <potential_duplicate>  (247) 
False

>  <uo_units>  (247) 
UO_0000065

>  <canonical_smiles>  (247) 
Cc1cc(C)c(\C=C\2/C(=O)Nc3ccccc23)[nH]1

>  <parent_molecule_chembl_id>  (247) 
CHEMBL276711

>  <assay_type>  (247) 
B

>  <src_id>  (247) 
1

>  <ligand_efficiency>  (247) 
{u'le': u'0.38', u'bei': u'20.81', u'sei': u'11.05', u'lle': u'2.21'}

>  <standard_flag>  (247) 
True

>  <molecule_chembl_id>  (247) 
CHEMBL276711

>  <target_organism>  (247) 
Homo sapiens

>  <standard_units>  (247) 
nM

>  <record_id>  (247) 
887452

>  <document_chembl_id>  (247) 
CHEMBL1156925

>  <bao_format>  (247) 
BAO_0000357

>  <data_validity_description>  (247) 
None

>  <activity_id>  (247) 
3101496

>  <standard_type>  (247) 
IC50

>  <target_chembl_id>  (247) 
CHEMBL1862

>  <data_validity_comment>  (247) 
None

>  <published_value>  (247) 
11

>  <document_year>  (247) 
2010

>  <target_pref_name>  (247) 
Tyrosine-protein kinase ABL

>  <assay_chembl_id>  (247) 
CHEMBL1071419

>  <standard_relation>  (247) 
=

>  <assay_description>  (247) 
Inhibition of ABL by ELISA-based kinase assay

>  <published_relation>  (247) 
=

>  <standard_value>  (247) 
11000

>  <qudt_units>  (247) 
http://www.openphacts.org/units/Nanomolar

>  <target_tax_id>  (247) 
9606

>  <bao_label>  (247) 
single protein format

>  <published_units>  (247) 
uM

>  <pchembl_value>  (247) 
4.96

>  <published_type>  (247) 
IC50

>  <activity_comment>  (247) 
None

$$$$

     RDKit          

 24 27  0  0  0  0  0  0  0  0999 V2000
    0.0000    0.0000    0.0000 C   0  0  0  0  0  0  0  0  0  0  0  0
    0.0000    0.0000    0.0000 C   0  0  0  0  0  0  0  0  0  0  0  0
    0.0000    0.0000    0.0000 C   0  0  0  0  0  0  0  0  0  0  0  0
    0.0000    0.0000    0.0000 C   0  0  0  0  0  0  0  0  0  0  0  0
    0.0000    0.0000    0.0000 C   0  0  0  0  0  0  0  0  0  0  0  0
    0.0000    0.0000    0.0000 C   0  0  0  0  0  0  0  0  0  0  0  0
    0.0000    0.0000    0.0000 C   0  0  0  0  0  0  0  0  0  0  0  0
    0.0000    0.0000    0.0000 C   0  0  0  0  0  0  0  0  0  0  0  0
    0.0000    0.0000    0.0000 C   0  0  0  0  0  0  0  0  0  0  0  0
    0.0000    0.0000    0.0000 O   0  0  0  0  0  0  0  0  0  0  0  0
    0.0000    0.0000    0.0000 N   0  0  0  0  0  0  0  0  0  0  0  0
    0.0000    0.0000    0.0000 C   0  0  0  0  0  0  0  0  0  0  0  0
    0.0000    0.0000    0.0000 C   0  0  0  0  0  0  0  0  0  0  0  0
    0.0000    0.0000    0.0000 C   0  0  0  0  0  0  0  0  0  0  0  0
    0.0000    0.0000    0.0000 C   0  0  0  0  0  0  0  0  0  0  0  0
    0.0000    0.0000    0.0000 C   0  0  0  0  0  0  0  0  0  0  0  0
    0.0000    0.0000    0.0000 C   0  0  0  0  0  0  0  0  0  0  0  0
    0.0000    0.0000    0.0000 C   0  0  0  0  0  0  0  0  0  0  0  0
    0.0000    0.0000    0.0000 C   0  0  0  0  0  0  0  0  0  0  0  0
    0.0000    0.0000    0.0000 C   0  0  0  0  0  0  0  0  0  0  0  0
    0.0000    0.0000    0.0000 C   0  0  0  0  0  0  0  0  0  0  0  0
    0.0000    0.0000    0.0000 N   0  0  0  0  0  0  0  0  0  0  0  0
    0.0000    0.0000    0.0000 C   0  0  0  0  0  0  0  0  0  0  0  0
    0.0000    0.0000    0.0000 N   0  0  0  0  0  0  0  0  0  0  0  0
  1  2  1  0
  2  3  2  0
  3  4  1  0
  4  5  1  0
  4  6  2  0
  6  7  1  0
  7  8  2  0
  8  9  1  0
  9 10  2  0
  9 11  1  0
 11 12  1  0
 12 13  2  0
 13 14  1  0
 14 15  2  0
 15 16  1  0
 16 17  2  0
 15 18  1  0
 18 19  2  0
 19 20  1  0
 20 21  2  0
 21 22  1  0
 22 23  2  0
  6 24  1  0
 24  2  1  0
  8 17  1  0
 17 12  1  0
 23 18  1  0
M  END
>  <pIC50>  (248) 
4.77

>  <ChEMBL_ID>  (248) 
CHEMBL602074

>  <document_journal>  (248) 
Bioorg. Med. Chem.

>  <bao_endpoint>  (248) 
BAO_0000190

>  <potential_duplicate>  (248) 
False

>  <uo_units>  (248) 
UO_0000065

>  <canonical_smiles>  (248) 
Cc1cc(C)c(\C=C\2/C(=O)Nc3ccc(cc23)c4cccnc4)[nH]1

>  <parent_molecule_chembl_id>  (248) 
CHEMBL602074

>  <assay_type>  (248) 
B

>  <src_id>  (248) 
1

>  <ligand_efficiency>  (248) 
{u'le': u'0.27', u'bei': u'15.12', u'sei': u'8.25', u'lle': u'1.65'}

>  <standard_flag>  (248) 
True

>  <molecule_chembl_id>  (248) 
CHEMBL602074

>  <target_organism>  (248) 
Homo sapiens

>  <standard_units>  (248) 
nM

>  <record_id>  (248) 
887165

>  <document_chembl_id>  (248) 
CHEMBL1156925

>  <bao_format>  (248) 
BAO_0000357

>  <data_validity_description>  (248) 
None

>  <activity_id>  (248) 
3101502

>  <standard_type>  (248) 
IC50

>  <target_chembl_id>  (248) 
CHEMBL1862

>  <data_validity_comment>  (248) 
None

>  <published_value>  (248) 
17

>  <document_year>  (248) 
2010

>  <target_pref_name>  (248) 
Tyrosine-protein kinase ABL

>  <assay_chembl_id>  (248) 
CHEMBL1071419

>  <standard_relation>  (248) 
=

>  <assay_description>  (248) 
Inhibition of ABL by ELISA-based kinase assay

>  <published_relation>  (248) 
=

>  <standard_value>  (248) 
17000

>  <qudt_units>  (248) 
http://www.openphacts.org/units/Nanomolar

>  <target_tax_id>  (248) 
9606

>  <bao_label>  (248) 
single protein format

>  <published_units>  (248) 
uM

>  <pchembl_value>  (248) 
4.77

>  <published_type>  (248) 
IC50

>  <activity_comment>  (248) 
None

$$$$

     RDKit          

 27 29  0  0  0  0  0  0  0  0999 V2000
    0.0000    0.0000    0.0000 C   0  0  0  0  0  0  0  0  0  0  0  0
    0.0000    0.0000    0.0000 C   0  0  0  0  0  0  0  0  0  0  0  0
    0.0000    0.0000    0.0000 O   0  0  0  0  0  0  0  0  0  0  0  0
    0.0000    0.0000    0.0000 C   0  0  0  0  0  0  0  0  0  0  0  0
    0.0000    0.0000    0.0000 C   0  0  0  0  0  0  0  0  0  0  0  0
    0.0000    0.0000    0.0000 C   0  0  0  0  0  0  0  0  0  0  0  0
    0.0000    0.0000    0.0000 C   0  0  0  0  0  0  0  0  0  0  0  0
    0.0000    0.0000    0.0000 N   0  0  0  0  0  0  0  0  0  0  0  0
    0.0000    0.0000    0.0000 C   0  0  0  0  0  0  0  0  0  0  0  0
    0.0000    0.0000    0.0000 C   0  0  0  0  0  0  0  0  0  0  0  0
    0.0000    0.0000    0.0000 C   0  0  0  0  0  0  0  0  0  0  0  0
    0.0000    0.0000    0.0000 C   0  0  0  0  0  0  0  0  0  0  0  0
    0.0000    0.0000    0.0000 C   0  0  0  0  0  0  0  0  0  0  0  0
    0.0000    0.0000    0.0000 O   0  0  0  0  0  0  0  0  0  0  0  0
    0.0000    0.0000    0.0000 N   0  0  0  0  0  0  0  0  0  0  0  0
    0.0000    0.0000    0.0000 C   0  0  0  0  0  0  0  0  0  0  0  0
    0.0000    0.0000    0.0000 C   0  0  0  0  0  0  0  0  0  0  0  0
    0.0000    0.0000    0.0000 C   0  0  0  0  0  0  0  0  0  0  0  0
    0.0000    0.0000    0.0000 C   0  0  0  0  0  0  0  0  0  0  0  0
    0.0000    0.0000    0.0000 C   0  0  0  0  0  0  0  0  0  0  0  0
    0.0000    0.0000    0.0000 Cl  0  0  0  0  0  0  0  0  0  0  0  0
    0.0000    0.0000    0.0000 C   0  0  0  0  0  0  0  0  0  0  0  0
    0.0000    0.0000    0.0000 C   0  0  0  0  0  0  0  0  0  0  0  0
    0.0000    0.0000    0.0000 C   0  0  0  0  0  0  0  0  0  0  0  0
    0.0000    0.0000    0.0000 F   0  0  0  0  0  0  0  0  0  0  0  0
    0.0000    0.0000    0.0000 C   0  0  0  0  0  0  0  0  0  0  0  0
    0.0000    0.0000    0.0000 Cl  0  0  0  0  0  0  0  0  0  0  0  0
  1  2  1  0
  2  3  1  0
  3  4  1  0
  4  5  2  0
  5  6  1  0
  6  7  2  0
  7  8  1  0
  8  9  2  0
  9 10  1  0
 10 11  1  0
 11 12  2  0
 12 13  1  0
 13 14  2  0
 13 15  1  0
 10 16  2  0
 16 17  1  0
 17 18  2  0
  2 19  1  0
 19 20  2  0
 20 21  1  0
 20 22  1  0
 22 23  2  0
 23 24  1  0
 24 25  1  0
 24 26  2  0
 26 27  1  0
 18  4  1  0
 17  7  1  0
 26 19  1  0
M  END
>  <pIC50>  (249) 
5.0

>  <ChEMBL_ID>  (249) 
CHEMBL602471

>  <document_journal>  (249) 
Bioorg. Med. Chem. Lett.

>  <bao_endpoint>  (249) 
BAO_0000190

>  <potential_duplicate>  (249) 
False

>  <uo_units>  (249) 
UO_0000065

>  <canonical_smiles>  (249) 
C[C@@H](Oc1ccc2ncc(\C=C\C(=O)N)cc2c1)c3c(Cl)ccc(F)c3Cl

>  <parent_molecule_chembl_id>  (249) 
CHEMBL602471

>  <assay_type>  (249) 
B

>  <src_id>  (249) 
1

>  <ligand_efficiency>  (249) 
{u'le': u'0.25', u'bei': u'12.34', u'sei': u'7.67', u'lle': u'0.03'}

>  <standard_flag>  (249) 
True

>  <molecule_chembl_id>  (249) 
CHEMBL602471

>  <target_organism>  (249) 
Homo sapiens

>  <standard_units>  (249) 
nM

>  <record_id>  (249) 
886073

>  <document_chembl_id>  (249) 
CHEMBL1156877

>  <bao_format>  (249) 
BAO_0000357

>  <data_validity_description>  (249) 
None

>  <activity_id>  (249) 
3104227

>  <standard_type>  (249) 
IC50

>  <target_chembl_id>  (249) 
CHEMBL1862

>  <data_validity_comment>  (249) 
None

>  <published_value>  (249) 
10

>  <document_year>  (249) 
2010

>  <target_pref_name>  (249) 
Tyrosine-protein kinase ABL

>  <assay_chembl_id>  (249) 
CHEMBL1066411

>  <standard_relation>  (249) 
=

>  <assay_description>  (249) 
Inhibition of recombinant Abl by TR-FRET assay

>  <published_relation>  (249) 
=

>  <standard_value>  (249) 
10000

>  <qudt_units>  (249) 
http://www.openphacts.org/units/Nanomolar

>  <target_tax_id>  (249) 
9606

>  <bao_label>  (249) 
single protein format

>  <published_units>  (249) 
uM

>  <pchembl_value>  (249) 
5

>  <published_type>  (249) 
IC50

>  <activity_comment>  (249) 
None

$$$$

     RDKit          

 32 34  0  0  0  0  0  0  0  0999 V2000
    0.0000    0.0000    0.0000 C   0  0  0  0  0  0  0  0  0  0  0  0
    0.0000    0.0000    0.0000 O   0  0  0  0  0  0  0  0  0  0  0  0
    0.0000    0.0000    0.0000 C   0  0  0  0  0  0  0  0  0  0  0  0
    0.0000    0.0000    0.0000 C   0  0  0  0  0  0  0  0  0  0  0  0
    0.0000    0.0000    0.0000 C   0  0  0  0  0  0  0  0  0  0  0  0
    0.0000    0.0000    0.0000 N   0  0  0  0  0  0  0  0  0  0  0  0
    0.0000    0.0000    0.0000 C   0  0  0  0  0  0  0  0  0  0  0  0
    0.0000    0.0000    0.0000 N   0  0  0  0  0  0  0  0  0  0  0  0
    0.0000    0.0000    0.0000 C   0  0  0  0  0  0  0  0  0  0  0  0
    0.0000    0.0000    0.0000 N   0  0  0  0  0  0  0  0  0  0  0  0
    0.0000    0.0000    0.0000 C   0  0  0  0  0  0  0  0  0  0  0  0
    0.0000    0.0000    0.0000 C   0  0  0  0  0  0  0  0  0  0  0  0
    0.0000    0.0000    0.0000 C   0  0  0  0  0  0  0  0  0  0  0  0
    0.0000    0.0000    0.0000 C   0  0  0  0  0  0  0  0  0  0  0  0
    0.0000    0.0000    0.0000 C   0  0  0  0  0  0  0  0  0  0  0  0
    0.0000    0.0000    0.0000 C   0  0  0  0  0  0  0  0  0  0  0  0
    0.0000    0.0000    0.0000 C   0  0  0  0  0  0  0  0  0  0  0  0
    0.0000    0.0000    0.0000 C   0  0  0  0  0  0  0  0  0  0  0  0
    0.0000    0.0000    0.0000 C   0  0  0  0  0  0  0  0  0  0  0  0
    0.0000    0.0000    0.0000 C   0  0  0  0  0  0  0  0  0  0  0  0
    0.0000    0.0000    0.0000 C   0  0  0  0  0  0  0  0  0  0  0  0
    0.0000    0.0000    0.0000 O   0  0  0  0  0  0  0  0  0  0  0  0
    0.0000    0.0000    0.0000 C   0  0  0  0  0  0  0  0  0  0  0  0
    0.0000    0.0000    0.0000 C   0  0  0  0  0  0  0  0  0  0  0  0
    0.0000    0.0000    0.0000 C   0  0  0  0  0  0  0  0  0  0  0  0
    0.0000    0.0000    0.0000 C   0  0  0  0  0  0  0  0  0  0  0  0
    0.0000    0.0000    0.0000 C   0  0  0  0  0  0  0  0  0  0  0  0
    0.0000    0.0000    0.0000 C   0  0  0  0  0  0  0  0  0  0  0  0
    0.0000    0.0000    0.0000 C   0  0  0  0  0  0  0  0  0  0  0  0
    0.0000    0.0000    0.0000 O   0  0  0  0  0  0  0  0  0  0  0  0
    0.0000    0.0000    0.0000 N   0  0  0  0  0  0  0  0  0  0  0  0
    0.0000    0.0000    0.0000 O   0  0  0  0  0  0  0  0  0  0  0  0
  1  2  1  0
  2  3  1  0
  3  4  2  0
  4  5  1  0
  5  6  2  0
  6  7  1  0
  7  8  2  0
  8  9  1  0
  9 10  1  0
 10 11  1  0
 11 12  2  0
 12 13  1  0
 13 14  2  0
 14 15  1  0
 15 16  2  0
 15 17  1  0
 17 18  3  0
  9 19  2  0
 19 20  1  0
 20 21  2  0
 21 22  1  0
 22 23  1  0
 23 24  1  0
 24 25  1  0
 25 26  1  0
 26 27  1  0
 27 28  1  0
 28 29  1  0
 29 30  2  0
 29 31  1  0
 31 32  1  0
 21  3  1  0
 19  5  1  0
 16 11  1  0
M  END
>  <pIC50>  (250) 
5.54

>  <ChEMBL_ID>  (250) 
CHEMBL598797

>  <document_journal>  (250) 
J. Med. Chem.

>  <bao_endpoint>  (250) 
BAO_0000190

>  <potential_duplicate>  (250) 
False

>  <uo_units>  (250) 
UO_0000065

>  <canonical_smiles>  (250) 
COc1cc2ncnc(Nc3cccc(c3)C#C)c2cc1OCCCCCCC(=O)NO

>  <parent_molecule_chembl_id>  (250) 
CHEMBL598797

>  <assay_type>  (250) 
B

>  <src_id>  (250) 
1

>  <ligand_efficiency>  (250) 
{u'le': u'0.24', u'bei': u'12.75', u'sei': u'5.25', u'lle': u'0.16'}

>  <standard_flag>  (250) 
True

>  <molecule_chembl_id>  (250) 
CHEMBL598797

>  <target_organism>  (250) 
Homo sapiens

>  <standard_units>  (250) 
nM

>  <record_id>  (250) 
887640

>  <document_chembl_id>  (250) 
CHEMBL1157563

>  <bao_format>  (250) 
BAO_0000357

>  <data_validity_description>  (250) 
None

>  <activity_id>  (250) 
3121097

>  <standard_type>  (250) 
IC50

>  <target_chembl_id>  (250) 
CHEMBL1862

>  <data_validity_comment>  (250) 
None

>  <published_value>  (250) 
2890

>  <document_year>  (250) 
2010

>  <target_pref_name>  (250) 
Tyrosine-protein kinase ABL

>  <assay_chembl_id>  (250) 
CHEMBL1065597

>  <standard_relation>  (250) 
=

>  <assay_description>  (250) 
Inhibition of Abl1

>  <published_relation>  (250) 
=

>  <standard_value>  (250) 
2890

>  <qudt_units>  (250) 
http://www.openphacts.org/units/Nanomolar

>  <target_tax_id>  (250) 
9606

>  <bao_label>  (250) 
single protein format

>  <published_units>  (250) 
nM

>  <pchembl_value>  (250) 
5.54

>  <published_type>  (250) 
IC50

>  <activity_comment>  (250) 
None

$$$$

     RDKit          

 41 46  0  0  0  0  0  0  0  0999 V2000
    0.0000    0.0000    0.0000 C   0  0  0  0  0  0  0  0  0  0  0  0
    0.0000    0.0000    0.0000 C   0  0  0  0  0  0  0  0  0  0  0  0
    0.0000    0.0000    0.0000 C   0  0  0  0  0  0  0  0  0  0  0  0
    0.0000    0.0000    0.0000 N   0  0  0  0  0  0  0  0  0  0  0  0
    0.0000    0.0000    0.0000 C   0  0  0  0  0  0  0  0  0  0  0  0
    0.0000    0.0000    0.0000 N   0  0  0  0  0  0  0  0  0  0  0  0
    0.0000    0.0000    0.0000 C   0  0  0  0  0  0  0  0  0  0  0  0
    0.0000    0.0000    0.0000 C   0  0  0  0  0  0  0  0  0  0  0  0
    0.0000    0.0000    0.0000 C   0  0  0  0  0  0  0  0  0  0  0  0
    0.0000    0.0000    0.0000 N   0  0  0  0  0  0  0  0  0  0  0  0
    0.0000    0.0000    0.0000 C   0  0  0  0  0  0  0  0  0  0  0  0
    0.0000    0.0000    0.0000 O   0  0  0  0  0  0  0  0  0  0  0  0
    0.0000    0.0000    0.0000 C   0  0  0  0  0  0  0  0  0  0  0  0
    0.0000    0.0000    0.0000 C   0  0  0  0  0  0  0  0  0  0  0  0
    0.0000    0.0000    0.0000 C   0  0  0  0  0  0  0  0  0  0  0  0
    0.0000    0.0000    0.0000 C   0  0  0  0  0  0  0  0  0  0  0  0
    0.0000    0.0000    0.0000 C   0  0  0  0  0  0  0  0  0  0  0  0
    0.0000    0.0000    0.0000 C   0  0  0  0  0  0  0  0  0  0  0  0
    0.0000    0.0000    0.0000 C   0  0  0  0  0  0  0  0  0  0  0  0
    0.0000    0.0000    0.0000 C   0  0  0  0  0  0  0  0  0  0  0  0
    0.0000    0.0000    0.0000 N   0  0  0  0  0  0  0  0  0  0  0  0
    0.0000    0.0000    0.0000 C   0  0  0  0  0  0  0  0  0  0  0  0
    0.0000    0.0000    0.0000 N   0  0  0  0  0  0  0  0  0  0  0  0
    0.0000    0.0000    0.0000 C   0  0  0  0  0  0  0  0  0  0  0  0
    0.0000    0.0000    0.0000 C   0  0  0  0  0  0  0  0  0  0  0  0
    0.0000    0.0000    0.0000 N   0  0  0  0  0  0  0  0  0  0  0  0
    0.0000    0.0000    0.0000 C   0  0  0  0  0  0  0  0  0  0  0  0
    0.0000    0.0000    0.0000 C   0  0  0  0  0  0  0  0  0  0  0  0
    0.0000    0.0000    0.0000 C   0  0  0  0  0  0  0  0  0  0  0  0
    0.0000    0.0000    0.0000 N   0  0  0  0  0  0  0  0  0  0  0  0
    0.0000    0.0000    0.0000 C   0  0  0  0  0  0  0  0  0  0  0  0
    0.0000    0.0000    0.0000 N   0  0  0  0  0  0  0  0  0  0  0  0
    0.0000    0.0000    0.0000 C   0  0  0  0  0  0  0  0  0  0  0  0
    0.0000    0.0000    0.0000 C   0  0  0  0  0  0  0  0  0  0  0  0
    0.0000    0.0000    0.0000 C   0  0  0  0  0  0  0  0  0  0  0  0
    0.0000    0.0000    0.0000 C   0  0  0  0  0  0  0  0  0  0  0  0
    0.0000    0.0000    0.0000 C   0  0  0  0  0  0  0  0  0  0  0  0
    0.0000    0.0000    0.0000 C   0  0  0  0  0  0  0  0  0  0  0  0
    0.0000    0.0000    0.0000 F   0  0  0  0  0  0  0  0  0  0  0  0
    0.0000    0.0000    0.0000 F   0  0  0  0  0  0  0  0  0  0  0  0
    0.0000    0.0000    0.0000 F   0  0  0  0  0  0  0  0  0  0  0  0
  1  2  1  0
  2  3  2  0
  3  4  1  0
  4  5  1  0
  5  6  2  0
  4  7  1  0
  7  8  2  0
  8  9  1  0
  9 10  1  0
 10 11  1  0
 11 12  2  0
 11 13  1  0
 13 14  2  0
 14 15  1  0
 15 16  2  0
 16 17  1  0
 16 18  1  0
 18 19  1  0
 19 20  2  0
 20 21  1  0
 21 22  1  0
 22 23  1  0
 23 24  1  0
 24 25  2  0
 25 26  1  0
 26 27  1  0
 27 28  1  0
 28 29  1  0
 25 30  1  0
 30 31  2  0
 31 32  1  0
 32 33  2  0
 18 34  2  0
  9 35  2  0
 35 36  1  0
 36 37  2  0
 36 38  1  0
 38 39  1  0
 38 40  1  0
 38 41  1  0
  6  2  1  0
 37  7  1  0
 34 13  1  0
 33 21  1  0
 33 24  1  0
 29 27  1  0
M  END
>  <pIC50>  (251) 
7.6

>  <ChEMBL_ID>  (251) 
CHEMBL1077317

>  <document_journal>  (251) 
J. Med. Chem.

>  <bao_endpoint>  (251) 
BAO_0000190

>  <potential_duplicate>  (251) 
False

>  <uo_units>  (251) 
UO_0000065

>  <canonical_smiles>  (251) 
Cc1cn(cn1)c2cc(NC(=O)c3ccc(C)c(\C=C\N4CNc5c(NC6CC6)ncnc45)c3)cc(c2)C(F)(F)F

>  <parent_molecule_chembl_id>  (251) 
CHEMBL1077317

>  <assay_type>  (251) 
B

>  <src_id>  (251) 
1

>  <ligand_efficiency>  (251) 
{u'le': u'0.25', u'bei': u'13.56', u'sei': u'7.6', u'lle': u'2.72'}

>  <standard_flag>  (251) 
True

>  <molecule_chembl_id>  (251) 
CHEMBL1077317

>  <target_organism>  (251) 
Homo sapiens

>  <standard_units>  (251) 
nM

>  <record_id>  (251) 
896188

>  <document_chembl_id>  (251) 
CHEMBL1155389

>  <bao_format>  (251) 
BAO_0000357

>  <data_validity_description>  (251) 
None

>  <activity_id>  (251) 
3186248

>  <standard_type>  (251) 
IC50

>  <target_chembl_id>  (251) 
CHEMBL1862

>  <data_validity_comment>  (251) 
None

>  <published_value>  (251) 
25

>  <document_year>  (251) 
2010

>  <target_pref_name>  (251) 
Tyrosine-protein kinase ABL

>  <assay_chembl_id>  (251) 
CHEMBL1110556

>  <standard_relation>  (251) 
=

>  <assay_description>  (251) 
Inhibition of wild type Abl

>  <published_relation>  (251) 
=

>  <standard_value>  (251) 
25

>  <qudt_units>  (251) 
http://www.openphacts.org/units/Nanomolar

>  <target_tax_id>  (251) 
9606

>  <bao_label>  (251) 
single protein format

>  <published_units>  (251) 
nM

>  <pchembl_value>  (251) 
7.6

>  <published_type>  (251) 
IC50

>  <activity_comment>  (251) 
None

$$$$

     RDKit          

 39 43  0  0  0  0  0  0  0  0999 V2000
    0.0000    0.0000    0.0000 C   0  0  0  0  0  0  0  0  0  0  0  0
    0.0000    0.0000    0.0000 C   0  0  0  0  0  0  0  0  0  0  0  0
    0.0000    0.0000    0.0000 C   0  0  0  0  0  0  0  0  0  0  0  0
    0.0000    0.0000    0.0000 N   0  0  0  0  0  0  0  0  0  0  0  0
    0.0000    0.0000    0.0000 C   0  0  0  0  0  0  0  0  0  0  0  0
    0.0000    0.0000    0.0000 N   0  0  0  0  0  0  0  0  0  0  0  0
    0.0000    0.0000    0.0000 C   0  0  0  0  0  0  0  0  0  0  0  0
    0.0000    0.0000    0.0000 C   0  0  0  0  0  0  0  0  0  0  0  0
    0.0000    0.0000    0.0000 C   0  0  0  0  0  0  0  0  0  0  0  0
    0.0000    0.0000    0.0000 N   0  0  0  0  0  0  0  0  0  0  0  0
    0.0000    0.0000    0.0000 C   0  0  0  0  0  0  0  0  0  0  0  0
    0.0000    0.0000    0.0000 O   0  0  0  0  0  0  0  0  0  0  0  0
    0.0000    0.0000    0.0000 C   0  0  0  0  0  0  0  0  0  0  0  0
    0.0000    0.0000    0.0000 C   0  0  0  0  0  0  0  0  0  0  0  0
    0.0000    0.0000    0.0000 C   0  0  0  0  0  0  0  0  0  0  0  0
    0.0000    0.0000    0.0000 C   0  0  0  0  0  0  0  0  0  0  0  0
    0.0000    0.0000    0.0000 C   0  0  0  0  0  0  0  0  0  0  0  0
    0.0000    0.0000    0.0000 C   0  0  0  0  0  0  0  0  0  0  0  0
    0.0000    0.0000    0.0000 N   0  0  0  0  0  0  0  0  0  0  0  0
    0.0000    0.0000    0.0000 C   0  0  0  0  0  0  0  0  0  0  0  0
    0.0000    0.0000    0.0000 N   0  0  0  0  0  0  0  0  0  0  0  0
    0.0000    0.0000    0.0000 C   0  0  0  0  0  0  0  0  0  0  0  0
    0.0000    0.0000    0.0000 C   0  0  0  0  0  0  0  0  0  0  0  0
    0.0000    0.0000    0.0000 C   0  0  0  0  0  0  0  0  0  0  0  0
    0.0000    0.0000    0.0000 N   0  0  0  0  0  0  0  0  0  0  0  0
    0.0000    0.0000    0.0000 C   0  0  0  0  0  0  0  0  0  0  0  0
    0.0000    0.0000    0.0000 C   0  0  0  0  0  0  0  0  0  0  0  0
    0.0000    0.0000    0.0000 C   0  0  0  0  0  0  0  0  0  0  0  0
    0.0000    0.0000    0.0000 C   0  0  0  0  0  0  0  0  0  0  0  0
    0.0000    0.0000    0.0000 N   0  0  0  0  0  0  0  0  0  0  0  0
    0.0000    0.0000    0.0000 C   0  0  0  0  0  0  0  0  0  0  0  0
    0.0000    0.0000    0.0000 C   0  0  0  0  0  0  0  0  0  0  0  0
    0.0000    0.0000    0.0000 C   0  0  0  0  0  0  0  0  0  0  0  0
    0.0000    0.0000    0.0000 C   0  0  0  0  0  0  0  0  0  0  0  0
    0.0000    0.0000    0.0000 C   0  0  0  0  0  0  0  0  0  0  0  0
    0.0000    0.0000    0.0000 C   0  0  0  0  0  0  0  0  0  0  0  0
    0.0000    0.0000    0.0000 F   0  0  0  0  0  0  0  0  0  0  0  0
    0.0000    0.0000    0.0000 F   0  0  0  0  0  0  0  0  0  0  0  0
    0.0000    0.0000    0.0000 F   0  0  0  0  0  0  0  0  0  0  0  0
  1  2  1  0
  2  3  2  0
  3  4  1  0
  4  5  1  0
  5  6  2  0
  4  7  1  0
  7  8  2  0
  8  9  1  0
  9 10  1  0
 10 11  1  0
 11 12  2  0
 11 13  1  0
 13 14  2  0
 14 15  1  0
 15 16  2  0
 16 17  1  0
 16 18  1  0
 18 19  1  0
 19 20  1  0
 20 21  2  0
 21 22  1  0
 22 23  2  0
 23 24  1  0
 24 25  2  0
 24 26  1  0
 26 27  2  0
 27 28  1  0
 28 29  2  0
 29 30  1  0
 30 31  2  0
 18 32  2  0
  9 33  2  0
 33 34  1  0
 34 35  2  0
 34 36  1  0
 36 37  1  0
 36 38  1  0
 36 39  1  0
  6  2  1  0
 35  7  1  0
 32 13  1  0
 25 20  1  0
 31 26  1  0
M  END
>  <pIC50>  (252) 
7.33222222222

>  <ChEMBL_ID>  (252) 
CHEMBL255863

>  <document_journal>  (252) 
J. Med. Chem.

>  <bao_endpoint>  (252) 
BAO_0000190

>  <potential_duplicate>  (252) 
False

>  <uo_units>  (252) 
UO_0000065

>  <canonical_smiles>  (252) 
Cc1cn(cn1)c2cc(NC(=O)c3ccc(C)c(Nc4nccc(n4)c5cccnc5)c3)cc(c2)C(F)(F)F

>  <parent_molecule_chembl_id>  (252) 
CHEMBL255863

>  <assay_type>  (252) 
B

>  <src_id>  (252) 
1

>  <ligand_efficiency>  (252) 
{u'le': u'0.26', u'bei': u'14.01', u'sei': u'7.6', u'lle': u'2.34'}

>  <standard_flag>  (252) 
True

>  <molecule_chembl_id>  (252) 
CHEMBL255863

>  <target_organism>  (252) 
Homo sapiens

>  <standard_units>  (252) 
nM

>  <record_id>  (252) 
896010

>  <document_chembl_id>  (252) 
CHEMBL1155389

>  <bao_format>  (252) 
BAO_0000357

>  <data_validity_description>  (252) 
None

>  <activity_id>  (252) 
3186251

>  <standard_type>  (252) 
IC50

>  <target_chembl_id>  (252) 
CHEMBL1862

>  <data_validity_comment>  (252) 
None

>  <published_value>  (252) 
38

>  <document_year>  (252) 
2010

>  <target_pref_name>  (252) 
Tyrosine-protein kinase ABL

>  <assay_chembl_id>  (252) 
CHEMBL1110556

>  <standard_relation>  (252) 
=

>  <assay_description>  (252) 
Inhibition of wild type Abl

>  <published_relation>  (252) 
=

>  <standard_value>  (252) 
38

>  <qudt_units>  (252) 
http://www.openphacts.org/units/Nanomolar

>  <target_tax_id>  (252) 
9606

>  <bao_label>  (252) 
single protein format

>  <published_units>  (252) 
nM

>  <pchembl_value>  (252) 
7.42

>  <published_type>  (252) 
IC50

>  <activity_comment>  (252) 
None

$$$$

     RDKit          

 37 41  0  0  0  0  0  0  0  0999 V2000
    0.0000    0.0000    0.0000 F   0  0  0  0  0  0  0  0  0  0  0  0
    0.0000    0.0000    0.0000 C   0  0  0  0  0  0  0  0  0  0  0  0
    0.0000    0.0000    0.0000 F   0  0  0  0  0  0  0  0  0  0  0  0
    0.0000    0.0000    0.0000 F   0  0  0  0  0  0  0  0  0  0  0  0
    0.0000    0.0000    0.0000 C   0  0  0  0  0  0  0  0  0  0  0  0
    0.0000    0.0000    0.0000 C   0  0  0  0  0  0  0  0  0  0  0  0
    0.0000    0.0000    0.0000 C   0  0  0  0  0  0  0  0  0  0  0  0
    0.0000    0.0000    0.0000 C   0  0  0  0  0  0  0  0  0  0  0  0
    0.0000    0.0000    0.0000 C   0  0  0  0  0  0  0  0  0  0  0  0
    0.0000    0.0000    0.0000 N   0  0  0  0  0  0  0  0  0  0  0  0
    0.0000    0.0000    0.0000 C   0  0  0  0  0  0  0  0  0  0  0  0
    0.0000    0.0000    0.0000 O   0  0  0  0  0  0  0  0  0  0  0  0
    0.0000    0.0000    0.0000 N   0  0  0  0  0  0  0  0  0  0  0  0
    0.0000    0.0000    0.0000 C   0  0  0  0  0  0  0  0  0  0  0  0
    0.0000    0.0000    0.0000 C   0  0  0  0  0  0  0  0  0  0  0  0
    0.0000    0.0000    0.0000 C   0  0  0  0  0  0  0  0  0  0  0  0
    0.0000    0.0000    0.0000 C   0  0  0  0  0  0  0  0  0  0  0  0
    0.0000    0.0000    0.0000 C   0  0  0  0  0  0  0  0  0  0  0  0
    0.0000    0.0000    0.0000 C   0  0  0  0  0  0  0  0  0  0  0  0
    0.0000    0.0000    0.0000 C   0  0  0  0  0  0  0  0  0  0  0  0
    0.0000    0.0000    0.0000 C   0  0  0  0  0  0  0  0  0  0  0  0
    0.0000    0.0000    0.0000 N   0  0  0  0  0  0  0  0  0  0  0  0
    0.0000    0.0000    0.0000 C   0  0  0  0  0  0  0  0  0  0  0  0
    0.0000    0.0000    0.0000 C   0  0  0  0  0  0  0  0  0  0  0  0
    0.0000    0.0000    0.0000 N   0  0  0  0  0  0  0  0  0  0  0  0
    0.0000    0.0000    0.0000 C   0  0  0  0  0  0  0  0  0  0  0  0
    0.0000    0.0000    0.0000 C   0  0  0  0  0  0  0  0  0  0  0  0
    0.0000    0.0000    0.0000 N   0  0  0  0  0  0  0  0  0  0  0  0
    0.0000    0.0000    0.0000 C   0  0  0  0  0  0  0  0  0  0  0  0
    0.0000    0.0000    0.0000 C   0  0  0  0  0  0  0  0  0  0  0  0
    0.0000    0.0000    0.0000 C   0  0  0  0  0  0  0  0  0  0  0  0
    0.0000    0.0000    0.0000 C   0  0  0  0  0  0  0  0  0  0  0  0
    0.0000    0.0000    0.0000 N   0  0  0  0  0  0  0  0  0  0  0  0
    0.0000    0.0000    0.0000 C   0  0  0  0  0  0  0  0  0  0  0  0
    0.0000    0.0000    0.0000 C   0  0  0  0  0  0  0  0  0  0  0  0
    0.0000    0.0000    0.0000 N   0  0  0  0  0  0  0  0  0  0  0  0
    0.0000    0.0000    0.0000 C   0  0  0  0  0  0  0  0  0  0  0  0
  1  2  1  0
  2  3  1  0
  2  4  1  0
  2  5  1  0
  5  6  2  0
  6  7  1  0
  7  8  2  0
  8  9  1  0
  9 10  1  0
 10 11  1  0
 11 12  2  0
 11 13  1  0
 13 14  1  0
 14 15  2  0
 15 16  1  0
 16 17  2  0
 17 18  1  0
 18 19  2  0
 18 20  1  0
 20 21  2  0
 21 22  1  0
 22 23  1  0
 23 24  2  0
 24 25  1  0
 25 26  2  0
 26 27  1  0
 27 28  1  0
 28 29  1  0
 29 30  1  0
 30 31  2  0
 31 32  1  0
 32 33  2  0
 33 34  1  0
 34 35  2  0
 27 36  2  0
  9 37  2  0
 37  5  1  0
 19 14  1  0
 36 20  1  0
 26 22  1  0
 35 30  1  0
M  END
>  <pIC50>  (253) 
4.84

>  <ChEMBL_ID>  (253) 
CHEMBL1081198

>  <document_journal>  (253) 
Bioorg. Med. Chem. Lett.

>  <bao_endpoint>  (253) 
BAO_0000190

>  <potential_duplicate>  (253) 
False

>  <uo_units>  (253) 
UO_0000065

>  <canonical_smiles>  (253) 
FC(F)(F)c1cccc(NC(=O)Nc2cccc(c2)c3cn4ccnc4c(NCc5ccncc5)n3)c1

>  <parent_molecule_chembl_id>  (253) 
CHEMBL1081198

>  <assay_type>  (253) 
B

>  <src_id>  (253) 
1

>  <ligand_efficiency>  (253) 
{u'le': u'0.18', u'bei': u'9.62', u'sei': u'5.03', u'lle': u'1.06'}

>  <standard_flag>  (253) 
True

>  <molecule_chembl_id>  (253) 
CHEMBL1081198

>  <target_organism>  (253) 
Homo sapiens

>  <standard_units>  (253) 
nM

>  <record_id>  (253) 
890197

>  <document_chembl_id>  (253) 
CHEMBL1153704

>  <bao_format>  (253) 
BAO_0000357

>  <data_validity_description>  (253) 
None

>  <activity_id>  (253) 
3210405

>  <standard_type>  (253) 
IC50

>  <target_chembl_id>  (253) 
CHEMBL1862

>  <data_validity_comment>  (253) 
None

>  <published_value>  (253) 
14.4

>  <document_year>  (253) 
2009

>  <target_pref_name>  (253) 
Tyrosine-protein kinase ABL

>  <assay_chembl_id>  (253) 
CHEMBL1109420

>  <standard_relation>  (253) 
=

>  <assay_description>  (253) 
Inhibition of Abl1 after 1 hr

>  <published_relation>  (253) 
=

>  <standard_value>  (253) 
14400

>  <qudt_units>  (253) 
http://www.openphacts.org/units/Nanomolar

>  <target_tax_id>  (253) 
9606

>  <bao_label>  (253) 
single protein format

>  <published_units>  (253) 
uM

>  <pchembl_value>  (253) 
4.84

>  <published_type>  (253) 
IC50

>  <activity_comment>  (253) 
None

$$$$

     RDKit          

 36 42  0  0  0  0  0  0  0  0999 V2000
    0.0000    0.0000    0.0000 C   0  0  0  0  0  0  0  0  0  0  0  0
    0.0000    0.0000    0.0000 N   0  0  0  0  0  0  0  0  0  0  0  0
    0.0000    0.0000    0.0000 C   0  0  0  0  0  0  0  0  0  0  0  0
    0.0000    0.0000    0.0000 C   0  0  0  0  0  0  0  0  0  0  0  0
    0.0000    0.0000    0.0000 C   0  0  0  0  0  0  0  0  0  0  0  0
    0.0000    0.0000    0.0000 C   0  0  0  0  0  0  0  0  0  0  0  0
    0.0000    0.0000    0.0000 C   0  0  0  0  0  0  0  0  0  0  0  0
    0.0000    0.0000    0.0000 N   0  0  0  0  0  0  0  0  0  0  0  0
    0.0000    0.0000    0.0000 C   0  0  0  0  0  0  0  0  0  0  0  0
    0.0000    0.0000    0.0000 C   0  0  0  0  0  0  0  0  0  0  0  0
    0.0000    0.0000    0.0000 C   0  0  0  0  0  0  0  0  0  0  0  0
    0.0000    0.0000    0.0000 C   0  0  0  0  0  0  0  0  0  0  0  0
    0.0000    0.0000    0.0000 C   0  0  0  0  0  0  0  0  0  0  0  0
    0.0000    0.0000    0.0000 C   0  0  0  0  0  0  0  0  0  0  0  0
    0.0000    0.0000    0.0000 C   0  0  0  0  0  0  0  0  0  0  0  0
    0.0000    0.0000    0.0000 C   0  0  0  0  0  0  0  0  0  0  0  0
    0.0000    0.0000    0.0000 C   0  0  0  0  0  0  0  0  0  0  0  0
    0.0000    0.0000    0.0000 N   0  0  0  0  0  0  0  0  0  0  0  0
    0.0000    0.0000    0.0000 C   0  0  0  0  0  0  0  0  0  0  0  0
    0.0000    0.0000    0.0000 C   0  0  0  0  0  0  0  0  0  0  0  0
    0.0000    0.0000    0.0000 C   0  0  0  0  0  0  0  0  0  0  0  0
    0.0000    0.0000    0.0000 C   0  0  0  0  0  0  0  0  0  0  0  0
    0.0000    0.0000    0.0000 C   0  0  0  0  0  0  0  0  0  0  0  0
    0.0000    0.0000    0.0000 C   0  0  0  0  0  0  0  0  0  0  0  0
    0.0000    0.0000    0.0000 C   0  0  0  0  0  0  0  0  0  0  0  0
    0.0000    0.0000    0.0000 O   0  0  0  0  0  0  0  0  0  0  0  0
    0.0000    0.0000    0.0000 C   0  0  0  0  0  0  0  0  0  0  0  0
    0.0000    0.0000    0.0000 C   0  0  0  0  0  0  0  0  0  0  0  0
    0.0000    0.0000    0.0000 N   0  0  0  0  0  0  0  0  0  0  0  0
    0.0000    0.0000    0.0000 N   0  0  0  0  0  0  0  0  0  0  0  0
    0.0000    0.0000    0.0000 C   0  0  0  0  0  0  0  0  0  0  0  0
    0.0000    0.0000    0.0000 C   0  0  0  0  0  0  0  0  0  0  0  0
    0.0000    0.0000    0.0000 C   0  0  0  0  0  0  0  0  0  0  0  0
    0.0000    0.0000    0.0000 N   0  0  0  0  0  0  0  0  0  0  0  0
    0.0000    0.0000    0.0000 C   0  0  0  0  0  0  0  0  0  0  0  0
    0.0000    0.0000    0.0000 C   0  0  0  0  0  0  0  0  0  0  0  0
  1  2  1  0
  2  3  1  0
  3  4  1  0
  4  5  1  0
  5  6  1  0
  6  7  1  0
  7  8  1  0
  8  9  1  0
  9 10  2  0
 10 11  1  0
 11 12  2  0
 12 13  1  0
 13 14  2  0
 12 15  1  0
 15 16  2  0
 16 17  1  0
 17 18  2  0
 18 19  1  0
 19 20  2  0
 20 21  1  0
 21 22  2  0
 22 23  1  0
 23 24  2  0
 24 25  1  0
 25 26  1  0
 25 27  2  0
 20 28  1  0
 28 29  2  0
 29 30  1  0
 28 31  1  0
 31 32  2  0
 32 33  1  0
 33 34  2  0
 34 35  1  0
 35 36  2  0
  6  2  1  0
  8  4  1  0
 14  9  1  0
 30 15  1  0
 30 19  1  0
 27 21  1  0
 36 31  1  0
M  END
>  <pIC50>  (254) 
6.25

>  <ChEMBL_ID>  (254) 
CHEMBL1087650

>  <document_journal>  (254) 
Bioorg. Med. Chem. Lett.

>  <bao_endpoint>  (254) 
BAO_0000190

>  <potential_duplicate>  (254) 
False

>  <uo_units>  (254) 
UO_0000065

>  <canonical_smiles>  (254) 
CN1C[C@@H]2C[C@H]1CN2c3ccc(cc3)c4ccnc5c(c6cccc(O)c6)c(nn45)c7ccncc7

>  <parent_molecule_chembl_id>  (254) 
CHEMBL1087650

>  <assay_type>  (254) 
B

>  <src_id>  (254) 
1

>  <ligand_efficiency>  (254) 
{u'le': u'0.24', u'bei': u'13.17', u'sei': u'8.95', u'lle': u'2.07'}

>  <standard_flag>  (254) 
True

>  <molecule_chembl_id>  (254) 
CHEMBL1087650

>  <target_organism>  (254) 
Homo sapiens

>  <standard_units>  (254) 
nM

>  <record_id>  (254) 
891538

>  <document_chembl_id>  (254) 
CHEMBL1154392

>  <bao_format>  (254) 
BAO_0000357

>  <data_validity_description>  (254) 
None

>  <activity_id>  (254) 
3219996

>  <standard_type>  (254) 
IC50

>  <target_chembl_id>  (254) 
CHEMBL1862

>  <data_validity_comment>  (254) 
None

>  <published_value>  (254) 
0.563

>  <document_year>  (254) 
2009

>  <target_pref_name>  (254) 
Tyrosine-protein kinase ABL

>  <assay_chembl_id>  (254) 
CHEMBL1115845

>  <standard_relation>  (254) 
=

>  <assay_description>  (254) 
Inhibition of ABL1

>  <published_relation>  (254) 
=

>  <standard_value>  (254) 
563

>  <qudt_units>  (254) 
http://www.openphacts.org/units/Nanomolar

>  <target_tax_id>  (254) 
9606

>  <bao_label>  (254) 
single protein format

>  <published_units>  (254) 
uM

>  <pchembl_value>  (254) 
6.25

>  <published_type>  (254) 
IC50

>  <activity_comment>  (254) 
None

$$$$

     RDKit          

 36 41  0  0  0  0  0  0  0  0999 V2000
    0.0000    0.0000    0.0000 F   0  0  0  0  0  0  0  0  0  0  0  0
    0.0000    0.0000    0.0000 C   0  0  0  0  0  0  0  0  0  0  0  0
    0.0000    0.0000    0.0000 C   0  0  0  0  0  0  0  0  0  0  0  0
    0.0000    0.0000    0.0000 C   0  0  0  0  0  0  0  0  0  0  0  0
    0.0000    0.0000    0.0000 C   0  0  0  0  0  0  0  0  0  0  0  0
    0.0000    0.0000    0.0000 C   0  0  0  0  0  0  0  0  0  0  0  0
    0.0000    0.0000    0.0000 F   0  0  0  0  0  0  0  0  0  0  0  0
    0.0000    0.0000    0.0000 C   0  0  0  0  0  0  0  0  0  0  0  0
    0.0000    0.0000    0.0000 C   0  0  0  0  0  0  0  0  0  0  0  0
    0.0000    0.0000    0.0000 N   0  0  0  0  0  0  0  0  0  0  0  0
    0.0000    0.0000    0.0000 C   0  0  0  0  0  0  0  0  0  0  0  0
    0.0000    0.0000    0.0000 C   0  0  0  0  0  0  0  0  0  0  0  0
    0.0000    0.0000    0.0000 O   0  0  0  0  0  0  0  0  0  0  0  0
    0.0000    0.0000    0.0000 C   0  0  0  0  0  0  0  0  0  0  0  0
    0.0000    0.0000    0.0000 C   0  0  0  0  0  0  0  0  0  0  0  0
    0.0000    0.0000    0.0000 C   0  0  0  0  0  0  0  0  0  0  0  0
    0.0000    0.0000    0.0000 C   0  0  0  0  0  0  0  0  0  0  0  0
    0.0000    0.0000    0.0000 C   0  0  0  0  0  0  0  0  0  0  0  0
    0.0000    0.0000    0.0000 C   0  0  0  0  0  0  0  0  0  0  0  0
    0.0000    0.0000    0.0000 C   0  0  0  0  0  0  0  0  0  0  0  0
    0.0000    0.0000    0.0000 N   0  0  0  0  0  0  0  0  0  0  0  0
    0.0000    0.0000    0.0000 C   0  0  0  0  0  0  0  0  0  0  0  0
    0.0000    0.0000    0.0000 C   0  0  0  0  0  0  0  0  0  0  0  0
    0.0000    0.0000    0.0000 N   0  0  0  0  0  0  0  0  0  0  0  0
    0.0000    0.0000    0.0000 C   0  0  0  0  0  0  0  0  0  0  0  0
    0.0000    0.0000    0.0000 C   0  0  0  0  0  0  0  0  0  0  0  0
    0.0000    0.0000    0.0000 C   0  0  0  0  0  0  0  0  0  0  0  0
    0.0000    0.0000    0.0000 N   0  0  0  0  0  0  0  0  0  0  0  0
    0.0000    0.0000    0.0000 N   0  0  0  0  0  0  0  0  0  0  0  0
    0.0000    0.0000    0.0000 C   0  0  0  0  0  0  0  0  0  0  0  0
    0.0000    0.0000    0.0000 C   0  0  0  0  0  0  0  0  0  0  0  0
    0.0000    0.0000    0.0000 C   0  0  0  0  0  0  0  0  0  0  0  0
    0.0000    0.0000    0.0000 C   0  0  0  0  0  0  0  0  0  0  0  0
    0.0000    0.0000    0.0000 N   0  0  0  0  0  0  0  0  0  0  0  0
    0.0000    0.0000    0.0000 C   0  0  0  0  0  0  0  0  0  0  0  0
    0.0000    0.0000    0.0000 C   0  0  0  0  0  0  0  0  0  0  0  0
  1  2  1  0
  2  3  2  0
  3  4  1  0
  4  5  2  0
  5  6  1  0
  6  7  1  0
  6  8  2  0
  8  9  1  0
  9 10  1  0
 10 11  1  0
 11 12  1  0
 12 13  1  0
 13 14  1  0
 14 15  1  0
  4 16  1  0
 16 17  2  0
 17 18  1  0
 18 19  2  0
 19 20  1  0
 20 21  2  0
 21 22  1  0
 22 23  2  0
 23 24  1  0
 24 25  2  0
 23 26  1  0
 26 27  1  0
 27 28  2  0
 28 29  1  0
 29 30  1  0
 29 31  1  0
 31 32  1  0
 32 33  1  0
 33 34  1  0
 34 35  1  0
 35 36  1  0
  8  2  1  0
 15 10  1  0
 25 16  1  0
 25 20  1  0
 30 26  2  0
 36 31  1  0
M  END
>  <pIC50>  (255) 
7.1

>  <ChEMBL_ID>  (255) 
CHEMBL1092926

>  <document_journal>  (255) 
Bioorg. Med. Chem. Lett.

>  <bao_endpoint>  (255) 
BAO_0000190

>  <potential_duplicate>  (255) 
False

>  <uo_units>  (255) 
UO_0000065

>  <canonical_smiles>  (255) 
Fc1cc(cc(F)c1CN2CCOCC2)c3cccc4ncc(nc34)c5cnn(c5)C6CCNCC6

>  <parent_molecule_chembl_id>  (255) 
CHEMBL1092926

>  <assay_type>  (255) 
B

>  <src_id>  (255) 
1

>  <ligand_efficiency>  (255) 
{u'le': u'0.27', u'bei': u'14.47', u'sei': u'10.42', u'lle': u'3.94'}

>  <standard_flag>  (255) 
True

>  <molecule_chembl_id>  (255) 
CHEMBL1092926

>  <target_organism>  (255) 
Homo sapiens

>  <standard_units>  (255) 
nM

>  <record_id>  (255) 
901642

>  <document_chembl_id>  (255) 
CHEMBL1156975

>  <bao_format>  (255) 
BAO_0000357

>  <data_validity_description>  (255) 
None

>  <activity_id>  (255) 
3248926

>  <standard_type>  (255) 
IC50

>  <target_chembl_id>  (255) 
CHEMBL1862

>  <data_validity_comment>  (255) 
None

>  <published_value>  (255) 
80

>  <document_year>  (255) 
2010

>  <target_pref_name>  (255) 
Tyrosine-protein kinase ABL

>  <assay_chembl_id>  (255) 
CHEMBL1116996

>  <standard_relation>  (255) 
=

>  <assay_description>  (255) 
Inhibition of ABL

>  <published_relation>  (255) 
=

>  <standard_value>  (255) 
80

>  <qudt_units>  (255) 
http://www.openphacts.org/units/Nanomolar

>  <target_tax_id>  (255) 
9606

>  <bao_label>  (255) 
single protein format

>  <published_units>  (255) 
nM

>  <pchembl_value>  (255) 
7.1

>  <published_type>  (255) 
IC50

>  <activity_comment>  (255) 
None

$$$$

     RDKit          

 34 38  0  0  0  0  0  0  0  0999 V2000
    0.0000    0.0000    0.0000 C   0  0  0  0  0  0  0  0  0  0  0  0
    0.0000    0.0000    0.0000 N   0  0  0  0  0  0  0  0  0  0  0  0
    0.0000    0.0000    0.0000 C   0  0  0  0  0  0  0  0  0  0  0  0
    0.0000    0.0000    0.0000 C   0  0  0  0  0  0  0  0  0  0  0  0
    0.0000    0.0000    0.0000 C   0  0  0  0  0  0  0  0  0  0  0  0
    0.0000    0.0000    0.0000 C   0  0  0  0  0  0  0  0  0  0  0  0
    0.0000    0.0000    0.0000 O   0  0  0  0  0  0  0  0  0  0  0  0
    0.0000    0.0000    0.0000 C   0  0  0  0  0  0  0  0  0  0  0  0
    0.0000    0.0000    0.0000 C   0  0  0  0  0  0  0  0  0  0  0  0
    0.0000    0.0000    0.0000 C   0  0  0  0  0  0  0  0  0  0  0  0
    0.0000    0.0000    0.0000 C   0  0  0  0  0  0  0  0  0  0  0  0
    0.0000    0.0000    0.0000 C   0  0  0  0  0  0  0  0  0  0  0  0
    0.0000    0.0000    0.0000 O   0  0  0  0  0  0  0  0  0  0  0  0
    0.0000    0.0000    0.0000 C   0  0  0  0  0  0  0  0  0  0  0  0
    0.0000    0.0000    0.0000 C   0  0  0  0  0  0  0  0  0  0  0  0
    0.0000    0.0000    0.0000 O   0  0  0  0  0  0  0  0  0  0  0  0
    0.0000    0.0000    0.0000 C   0  0  0  0  0  0  0  0  0  0  0  0
    0.0000    0.0000    0.0000 C   0  0  0  0  0  0  0  0  0  0  0  0
    0.0000    0.0000    0.0000 C   0  0  0  0  0  0  0  0  0  0  0  0
    0.0000    0.0000    0.0000 C   0  0  0  0  0  0  0  0  0  0  0  0
    0.0000    0.0000    0.0000 N   0  0  0  0  0  0  0  0  0  0  0  0
    0.0000    0.0000    0.0000 C   0  0  0  0  0  0  0  0  0  0  0  0
    0.0000    0.0000    0.0000 C   0  0  0  0  0  0  0  0  0  0  0  0
    0.0000    0.0000    0.0000 C   0  0  0  0  0  0  0  0  0  0  0  0
    0.0000    0.0000    0.0000 C   0  0  0  0  0  0  0  0  0  0  0  0
    0.0000    0.0000    0.0000 C   0  0  0  0  0  0  0  0  0  0  0  0
    0.0000    0.0000    0.0000 C   0  0  0  0  0  0  0  0  0  0  0  0
    0.0000    0.0000    0.0000 C   0  0  0  0  0  0  0  0  0  0  0  0
    0.0000    0.0000    0.0000 C   0  0  0  0  0  0  0  0  0  0  0  0
    0.0000    0.0000    0.0000 O   0  0  0  0  0  0  0  0  0  0  0  0
    0.0000    0.0000    0.0000 N   0  0  0  0  0  0  0  0  0  0  0  0
    0.0000    0.0000    0.0000 C   0  0  0  0  0  0  0  0  0  0  0  0
    0.0000    0.0000    0.0000 C   0  0  0  0  0  0  0  0  0  0  0  0
    0.0000    0.0000    0.0000 O   0  0  0  0  0  0  0  0  0  0  0  0
  1  2  1  0
  2  3  1  0
  3  4  2  0
  4  5  1  0
  5  6  2  0
  6  7  1  0
  7  8  1  0
  8  9  2  0
  9 10  1  0
 10 11  2  0
 11 12  1  0
 12 13  1  0
 12 14  2  0
 14 15  1  0
 15 16  2  0
  4 17  1  0
 17 18  2  0
 18 19  1  0
 19 20  2  0
 20 21  1  0
 21 22  2  0
 18 23  1  0
 23 24  2  0
 24 25  1  0
 25 26  2  0
 26 27  1  0
 27 28  2  0
 26 29  1  0
 29 30  2  0
 29 31  1  0
 31 32  1  0
 32 33  1  0
 33 34  1  0
 22  2  1  0
  6 15  1  0
 14  8  1  0
 22 17  1  0
 28 23  1  0
M  END
>  <pIC50>  (256) 
8.01

>  <ChEMBL_ID>  (256) 
CHEMBL1092754

>  <document_journal>  (256) 
Bioorg. Med. Chem. Lett.

>  <bao_endpoint>  (256) 
BAO_0000190

>  <potential_duplicate>  (256) 
False

>  <uo_units>  (256) 
UO_0000065

>  <canonical_smiles>  (256) 
Cn1cc(\C=C\2/Oc3cccc(O)c3C2=O)c4c(ccnc14)c5ccc(cc5)C(=O)NCCO

>  <parent_molecule_chembl_id>  (256) 
CHEMBL1092754

>  <assay_type>  (256) 
B

>  <src_id>  (256) 
1

>  <ligand_efficiency>  (256) 
{u'le': u'0.32', u'bei': u'17.59', u'sei': u'7.05', u'lle': u'5.38'}

>  <standard_flag>  (256) 
True

>  <molecule_chembl_id>  (256) 
CHEMBL1092754

>  <target_organism>  (256) 
Homo sapiens

>  <standard_units>  (256) 
nM

>  <record_id>  (256) 
901360

>  <document_chembl_id>  (256) 
CHEMBL1156283

>  <bao_format>  (256) 
BAO_0000357

>  <data_validity_description>  (256) 
None

>  <activity_id>  (256) 
3251254

>  <standard_type>  (256) 
IC50

>  <target_chembl_id>  (256) 
CHEMBL1862

>  <data_validity_comment>  (256) 
None

>  <published_value>  (256) 
9.7

>  <document_year>  (256) 
2010

>  <target_pref_name>  (256) 
Tyrosine-protein kinase ABL

>  <assay_chembl_id>  (256) 
CHEMBL1107909

>  <standard_relation>  (256) 
=

>  <assay_description>  (256) 
Inhibition of ABL1

>  <published_relation>  (256) 
=

>  <standard_value>  (256) 
9.7

>  <qudt_units>  (256) 
http://www.openphacts.org/units/Nanomolar

>  <target_tax_id>  (256) 
9606

>  <bao_label>  (256) 
single protein format

>  <published_units>  (256) 
nM

>  <pchembl_value>  (256) 
8.01

>  <published_type>  (256) 
IC50

>  <activity_comment>  (256) 
None

$$$$

     RDKit          

 36 39  0  0  0  0  0  0  0  0999 V2000
    0.0000    0.0000    0.0000 C   0  0  0  0  0  0  0  0  0  0  0  0
    0.0000    0.0000    0.0000 O   0  0  0  0  0  0  0  0  0  0  0  0
    0.0000    0.0000    0.0000 C   0  0  0  0  0  0  0  0  0  0  0  0
    0.0000    0.0000    0.0000 C   0  0  0  0  0  0  0  0  0  0  0  0
    0.0000    0.0000    0.0000 C   0  0  0  0  0  0  0  0  0  0  0  0
    0.0000    0.0000    0.0000 N   0  0  0  0  0  0  0  0  0  0  0  0
    0.0000    0.0000    0.0000 C   0  0  0  0  0  0  0  0  0  0  0  0
    0.0000    0.0000    0.0000 C   0  0  0  0  0  0  0  0  0  0  0  0
    0.0000    0.0000    0.0000 C   0  0  0  0  0  0  0  0  0  0  0  0
    0.0000    0.0000    0.0000 N   0  0  0  0  0  0  0  0  0  0  0  0
    0.0000    0.0000    0.0000 C   0  0  0  0  0  0  0  0  0  0  0  0
    0.0000    0.0000    0.0000 C   0  0  0  0  0  0  0  0  0  0  0  0
    0.0000    0.0000    0.0000 C   0  0  0  0  0  0  0  0  0  0  0  0
    0.0000    0.0000    0.0000 C   0  0  0  0  0  0  0  0  0  0  0  0
    0.0000    0.0000    0.0000 C   0  0  0  0  0  0  0  0  0  0  0  0
    0.0000    0.0000    0.0000 C   0  0  0  0  0  0  0  0  0  0  0  0
    0.0000    0.0000    0.0000 C   0  0  0  0  0  0  0  0  0  0  0  0
    0.0000    0.0000    0.0000 N   0  0  0  0  0  0  0  0  0  0  0  0
    0.0000    0.0000    0.0000 C   0  0  0  0  0  0  0  0  0  0  0  0
    0.0000    0.0000    0.0000 C   0  0  0  0  0  0  0  0  0  0  0  0
    0.0000    0.0000    0.0000 N   0  0  0  0  0  0  0  0  0  0  0  0
    0.0000    0.0000    0.0000 C   0  0  0  0  0  0  0  0  0  0  0  0
    0.0000    0.0000    0.0000 C   0  0  0  0  0  0  0  0  0  0  0  0
    0.0000    0.0000    0.0000 C   0  0  0  0  0  0  0  0  0  0  0  0
    0.0000    0.0000    0.0000 C   0  0  0  0  0  0  0  0  0  0  0  0
    0.0000    0.0000    0.0000 O   0  0  0  0  0  0  0  0  0  0  0  0
    0.0000    0.0000    0.0000 C   0  0  0  0  0  0  0  0  0  0  0  0
    0.0000    0.0000    0.0000 C   0  0  0  0  0  0  0  0  0  0  0  0
    0.0000    0.0000    0.0000 C   0  0  0  0  0  0  0  0  0  0  0  0
    0.0000    0.0000    0.0000 C   0  0  0  0  0  0  0  0  0  0  0  0
    0.0000    0.0000    0.0000 N   0  0  0  0  0  0  0  0  0  0  0  0
    0.0000    0.0000    0.0000 C   0  0  0  0  0  0  0  0  0  0  0  0
    0.0000    0.0000    0.0000 Cl  0  0  0  0  0  0  0  0  0  0  0  0
    0.0000    0.0000    0.0000 C   0  0  0  0  0  0  0  0  0  0  0  0
    0.0000    0.0000    0.0000 C   0  0  0  0  0  0  0  0  0  0  0  0
    0.0000    0.0000    0.0000 Cl  0  0  0  0  0  0  0  0  0  0  0  0
  1  2  1  0
  2  3  1  0
  3  4  2  0
  4  5  1  0
  5  6  1  0
  6  7  1  0
  7  8  2  0
  8  9  1  0
  9 10  2  0
 10 11  1  0
 11 12  2  0
 12 13  1  0
 13 14  1  0
 14 15  2  0
 15 16  1  0
 16 17  1  0
 17 18  1  0
 18 19  1  0
 19 20  1  0
 20 21  1  0
 21 22  1  0
 21 23  1  0
 23 24  1  0
 13 25  2  0
 25 26  1  0
 26 27  1  0
 25 28  1  0
 28 29  2  0
  8 30  1  0
 30 31  3  0
  5 32  2  0
 32 33  1  0
 32 34  1  0
 34 35  2  0
 35 36  1  0
 35  3  1  0
 29  7  1  0
 29 11  1  0
 24 18  1  0
M  END
>  <pIC50>  (257) 
9.4

>  <ChEMBL_ID>  (257) 
CHEMBL1088240

>  <document_journal>  (257) 
Bioorg. Med. Chem. Lett.

>  <bao_endpoint>  (257) 
BAO_0000190

>  <potential_duplicate>  (257) 
False

>  <uo_units>  (257) 
UO_0000065

>  <canonical_smiles>  (257) 
COc1cc(Nc2c(cnc3cc(\C=C\CCN4CCN(C)CC4)c(OC)cc23)C#N)c(Cl)cc1Cl

>  <parent_molecule_chembl_id>  (257) 
CHEMBL1088240

>  <assay_type>  (257) 
B

>  <src_id>  (257) 
1

>  <ligand_efficiency>  (257) 
{u'le': u'0.36', u'bei': u'17.85', u'sei': u'12.76', u'lle': u'3.84'}

>  <standard_flag>  (257) 
True

>  <molecule_chembl_id>  (257) 
CHEMBL1088240

>  <target_organism>  (257) 
Homo sapiens

>  <standard_units>  (257) 
nM

>  <record_id>  (257) 
911910

>  <document_chembl_id>  (257) 
CHEMBL1157919

>  <bao_format>  (257) 
BAO_0000357

>  <data_validity_description>  (257) 
None

>  <activity_id>  (257) 
3277998

>  <standard_type>  (257) 
IC50

>  <target_chembl_id>  (257) 
CHEMBL1862

>  <data_validity_comment>  (257) 
None

>  <published_value>  (257) 
0.4

>  <document_year>  (257) 
2010

>  <target_pref_name>  (257) 
Tyrosine-protein kinase ABL

>  <assay_chembl_id>  (257) 
CHEMBL1114752

>  <standard_relation>  (257) 
=

>  <assay_description>  (257) 
Inhibition of Abl

>  <published_relation>  (257) 
=

>  <standard_value>  (257) 
0.4

>  <qudt_units>  (257) 
http://www.openphacts.org/units/Nanomolar

>  <target_tax_id>  (257) 
9606

>  <bao_label>  (257) 
single protein format

>  <published_units>  (257) 
nM

>  <pchembl_value>  (257) 
9.4

>  <published_type>  (257) 
IC50

>  <activity_comment>  (257) 
None

$$$$

     RDKit          

 37 41  0  0  0  0  0  0  0  0999 V2000
    0.0000    0.0000    0.0000 C   0  0  0  0  0  0  0  0  0  0  0  0
    0.0000    0.0000    0.0000 C   0  0  0  0  0  0  0  0  0  0  0  0
    0.0000    0.0000    0.0000 C   0  0  0  0  0  0  0  0  0  0  0  0
    0.0000    0.0000    0.0000 C   0  0  0  0  0  0  0  0  0  0  0  0
    0.0000    0.0000    0.0000 O   0  0  0  0  0  0  0  0  0  0  0  0
    0.0000    0.0000    0.0000 C   0  0  0  0  0  0  0  0  0  0  0  0
    0.0000    0.0000    0.0000 O   0  0  0  0  0  0  0  0  0  0  0  0
    0.0000    0.0000    0.0000 N   0  0  0  0  0  0  0  0  0  0  0  0
    0.0000    0.0000    0.0000 C   0  0  0  0  0  0  0  0  0  0  0  0
    0.0000    0.0000    0.0000 C   0  0  0  0  0  0  0  0  0  0  0  0
    0.0000    0.0000    0.0000 C   0  0  0  0  0  0  0  0  0  0  0  0
    0.0000    0.0000    0.0000 C   0  0  0  0  0  0  0  0  0  0  0  0
    0.0000    0.0000    0.0000 C   0  0  0  0  0  0  0  0  0  0  0  0
    0.0000    0.0000    0.0000 C   0  0  0  0  0  0  0  0  0  0  0  0
    0.0000    0.0000    0.0000 C   0  0  0  0  0  0  0  0  0  0  0  0
    0.0000    0.0000    0.0000 C   0  0  0  0  0  0  0  0  0  0  0  0
    0.0000    0.0000    0.0000 N   0  0  0  0  0  0  0  0  0  0  0  0
    0.0000    0.0000    0.0000 C   0  0  0  0  0  0  0  0  0  0  0  0
    0.0000    0.0000    0.0000 C   0  0  0  0  0  0  0  0  0  0  0  0
    0.0000    0.0000    0.0000 C   0  0  0  0  0  0  0  0  0  0  0  0
    0.0000    0.0000    0.0000 N   0  0  0  0  0  0  0  0  0  0  0  0
    0.0000    0.0000    0.0000 N   0  0  0  0  0  0  0  0  0  0  0  0
    0.0000    0.0000    0.0000 C   0  0  0  0  0  0  0  0  0  0  0  0
    0.0000    0.0000    0.0000 N   0  0  0  0  0  0  0  0  0  0  0  0
    0.0000    0.0000    0.0000 C   0  0  0  0  0  0  0  0  0  0  0  0
    0.0000    0.0000    0.0000 C   0  0  0  0  0  0  0  0  0  0  0  0
    0.0000    0.0000    0.0000 C   0  0  0  0  0  0  0  0  0  0  0  0
    0.0000    0.0000    0.0000 C   0  0  0  0  0  0  0  0  0  0  0  0
    0.0000    0.0000    0.0000 C   0  0  0  0  0  0  0  0  0  0  0  0
    0.0000    0.0000    0.0000 C   0  0  0  0  0  0  0  0  0  0  0  0
    0.0000    0.0000    0.0000 N   0  0  0  0  0  0  0  0  0  0  0  0
    0.0000    0.0000    0.0000 C   0  0  0  0  0  0  0  0  0  0  0  0
    0.0000    0.0000    0.0000 C   0  0  0  0  0  0  0  0  0  0  0  0
    0.0000    0.0000    0.0000 N   0  0  0  0  0  0  0  0  0  0  0  0
    0.0000    0.0000    0.0000 C   0  0  0  0  0  0  0  0  0  0  0  0
    0.0000    0.0000    0.0000 C   0  0  0  0  0  0  0  0  0  0  0  0
    0.0000    0.0000    0.0000 C   0  0  0  0  0  0  0  0  0  0  0  0
  1  2  1  0
  2  3  1  0
  2  4  1  0
  4  5  1  0
  5  6  1  0
  6  7  2  0
  6  8  1  0
  8  9  1  0
  9 10  2  0
 10 11  1  0
 11 12  2  0
 12 13  1  0
 13 14  2  0
 12 15  1  0
 15 16  1  0
 16 17  2  0
 17 18  1  0
 18 19  2  0
 19 20  1  0
 20 21  2  0
 21 22  1  0
 22 23  1  0
 23 24  1  0
 19 25  1  0
 25 26  2  0
 26 27  1  0
 27 28  2  0
 28 29  1  0
 29 30  2  0
 28 31  1  0
 31 32  1  0
 32 33  1  0
 33 34  1  0
 34 35  1  0
 34 36  1  0
 36 37  1  0
 14  9  1  0
 23 15  2  0
 22 18  1  0
 30 25  1  0
 37 31  1  0
M  END
>  <pIC50>  (258) 
7.4

>  <ChEMBL_ID>  (258) 
CHEMBL1085511

>  <document_journal>  (258) 
Bioorg. Med. Chem. Lett.

>  <bao_endpoint>  (258) 
BAO_0000190

>  <potential_duplicate>  (258) 
False

>  <uo_units>  (258) 
UO_0000065

>  <canonical_smiles>  (258) 
CC(C)COC(=O)Nc1ccc(cc1)c2cnc3c(cnn3c2N)c4ccc(cc4)N5CCN(C)CC5

>  <parent_molecule_chembl_id>  (258) 
CHEMBL1085511

>  <assay_type>  (258) 
B

>  <src_id>  (258) 
1

>  <ligand_efficiency>  (258) 
{u'le': u'0.27', u'bei': u'14.81', u'sei': u'7.32', u'lle': u'3.39'}

>  <standard_flag>  (258) 
True

>  <molecule_chembl_id>  (258) 
CHEMBL1085511

>  <target_organism>  (258) 
Homo sapiens

>  <standard_units>  (258) 
nM

>  <record_id>  (258) 
916944

>  <document_chembl_id>  (258) 
CHEMBL1158604

>  <bao_format>  (258) 
BAO_0000357

>  <data_validity_description>  (258) 
None

>  <activity_id>  (258) 
3315889

>  <standard_type>  (258) 
IC50

>  <target_chembl_id>  (258) 
CHEMBL1862

>  <data_validity_comment>  (258) 
None

>  <published_value>  (258) 
0.04

>  <document_year>  (258) 
2010

>  <target_pref_name>  (258) 
Tyrosine-protein kinase ABL

>  <assay_chembl_id>  (258) 
CHEMBL1120235

>  <standard_relation>  (258) 
=

>  <assay_description>  (258) 
Inhibition of ABL

>  <published_relation>  (258) 
=

>  <standard_value>  (258) 
40

>  <qudt_units>  (258) 
http://www.openphacts.org/units/Nanomolar

>  <target_tax_id>  (258) 
9606

>  <bao_label>  (258) 
single protein format

>  <published_units>  (258) 
uM

>  <pchembl_value>  (258) 
7.4

>  <published_type>  (258) 
IC50

>  <activity_comment>  (258) 
None

$$$$

     RDKit          

 33 36  0  0  0  0  0  0  0  0999 V2000
    0.0000    0.0000    0.0000 C   0  0  0  0  0  0  0  0  0  0  0  0
    0.0000    0.0000    0.0000 C   0  0  0  0  0  0  0  0  0  0  0  0
    0.0000    0.0000    0.0000 N   0  0  0  0  0  0  0  0  0  0  0  0
    0.0000    0.0000    0.0000 C   0  0  0  0  0  0  0  0  0  0  0  0
    0.0000    0.0000    0.0000 N   0  0  0  0  0  0  0  0  0  0  0  0
    0.0000    0.0000    0.0000 C   0  0  0  0  0  0  0  0  0  0  0  0
    0.0000    0.0000    0.0000 C   0  0  0  0  0  0  0  0  0  0  0  0
    0.0000    0.0000    0.0000 N   0  0  0  0  0  0  0  0  0  0  0  0
    0.0000    0.0000    0.0000 C   0  0  0  0  0  0  0  0  0  0  0  0
    0.0000    0.0000    0.0000 C   0  0  0  0  0  0  0  0  0  0  0  0
    0.0000    0.0000    0.0000 C   0  0  0  0  0  0  0  0  0  0  0  0
    0.0000    0.0000    0.0000 C   0  0  0  0  0  0  0  0  0  0  0  0
    0.0000    0.0000    0.0000 C   0  0  0  0  0  0  0  0  0  0  0  0
    0.0000    0.0000    0.0000 C   0  0  0  0  0  0  0  0  0  0  0  0
    0.0000    0.0000    0.0000 P   0  0  0  0  0  0  0  0  0  0  0  0
    0.0000    0.0000    0.0000 O   0  0  0  0  0  0  0  0  0  0  0  0
    0.0000    0.0000    0.0000 O   0  0  0  0  0  0  0  0  0  0  0  0
    0.0000    0.0000    0.0000 C   0  0  0  0  0  0  0  0  0  0  0  0
    0.0000    0.0000    0.0000 P   0  0  0  0  0  0  0  0  0  0  0  0
    0.0000    0.0000    0.0000 O   0  0  0  0  0  0  0  0  0  0  0  0
    0.0000    0.0000    0.0000 O   0  0  0  0  0  0  0  0  0  0  0  0
    0.0000    0.0000    0.0000 O   0  0  0  0  0  0  0  0  0  0  0  0
    0.0000    0.0000    0.0000 N   0  0  0  0  0  0  0  0  0  0  0  0
    0.0000    0.0000    0.0000 C   0  0  0  0  0  0  0  0  0  0  0  0
    0.0000    0.0000    0.0000 N   0  0  0  0  0  0  0  0  0  0  0  0
    0.0000    0.0000    0.0000 C   0  0  0  0  0  0  0  0  0  0  0  0
    0.0000    0.0000    0.0000 C   0  0  0  0  0  0  0  0  0  0  0  0
    0.0000    0.0000    0.0000 C   0  0  0  0  0  0  0  0  0  0  0  0
    0.0000    0.0000    0.0000 C   0  0  0  0  0  0  0  0  0  0  0  0
    0.0000    0.0000    0.0000 C   0  0  0  0  0  0  0  0  0  0  0  0
    0.0000    0.0000    0.0000 N   0  0  0  0  0  0  0  0  0  0  0  0
    0.0000    0.0000    0.0000 C   0  0  0  0  0  0  0  0  0  0  0  0
    0.0000    0.0000    0.0000 C   0  0  0  0  0  0  0  0  0  0  0  0
  1  2  1  0
  2  3  1  0
  3  4  1  0
  4  5  2  0
  5  6  1  0
  6  7  2  0
  7  8  1  0
  8  9  1  0
  9 10  2  0
 10 11  1  0
 11 12  2  0
 12 13  1  0
 13 14  2  0
 12 15  1  0
 15 16  2  0
 15 17  1  0
 15 18  1  0
 18 19  1  0
 19 20  2  0
 19 21  1  0
 19 22  1  0
  7 23  1  0
 23 24  2  0
 24 25  1  0
 25 26  2  0
 24 27  1  0
 27 28  1  0
 28 29  1  0
 29 30  1  0
 30 31  1  0
 30 32  1  0
 32 33  1  0
 26  3  1  0
 26  6  1  0
 14  9  1  0
 33 27  1  0
M  END
>  <pIC50>  (259) 
7.17

>  <ChEMBL_ID>  (259) 
CHEMBL1084268

>  <document_journal>  (259) 
J. Med. Chem.

>  <bao_endpoint>  (259) 
BAO_0000190

>  <potential_duplicate>  (259) 
False

>  <uo_units>  (259) 
UO_0000065

>  <canonical_smiles>  (259) 
CCn1cnc2c(Nc3ccc(cc3)P(=O)(O)CP(=O)(O)O)nc(nc12)[C@@H]4CC[C@@H](N)CC4

>  <parent_molecule_chembl_id>  (259) 
CHEMBL1084268

>  <assay_type>  (259) 
B

>  <src_id>  (259) 
1

>  <ligand_efficiency>  (259) 
{u'le': u'0.3', u'bei': u'14.5', u'sei': u'3.66', u'lle': u'5.63'}

>  <standard_flag>  (259) 
True

>  <molecule_chembl_id>  (259) 
CHEMBL1084268

>  <target_organism>  (259) 
Homo sapiens

>  <standard_units>  (259) 
nM

>  <record_id>  (259) 
913643

>  <document_chembl_id>  (259) 
CHEMBL1155461

>  <bao_format>  (259) 
BAO_0000357

>  <data_validity_description>  (259) 
None

>  <activity_id>  (259) 
3316526

>  <standard_type>  (259) 
IC50

>  <target_chembl_id>  (259) 
CHEMBL1862

>  <data_validity_comment>  (259) 
None

>  <published_value>  (259) 
68

>  <document_year>  (259) 
2010

>  <target_pref_name>  (259) 
Tyrosine-protein kinase ABL

>  <assay_chembl_id>  (259) 
CHEMBL1117891

>  <standard_relation>  (259) 
=

>  <assay_description>  (259) 
Inhibition of ABL1

>  <published_relation>  (259) 
=

>  <standard_value>  (259) 
68

>  <qudt_units>  (259) 
http://www.openphacts.org/units/Nanomolar

>  <target_tax_id>  (259) 
9606

>  <bao_label>  (259) 
single protein format

>  <published_units>  (259) 
nM

>  <pchembl_value>  (259) 
7.17

>  <published_type>  (259) 
IC50

>  <activity_comment>  (259) 
None

$$$$

     RDKit          

 26 28  0  0  0  0  0  0  0  0999 V2000
    0.0000    0.0000    0.0000 N   0  0  0  0  0  0  0  0  0  0  0  0
    0.0000    0.0000    0.0000 C   0  0  0  0  0  0  0  0  0  0  0  0
    0.0000    0.0000    0.0000 N   0  0  0  0  0  0  0  0  0  0  0  0
    0.0000    0.0000    0.0000 C   0  0  0  0  0  0  0  0  0  0  0  0
    0.0000    0.0000    0.0000 S   0  0  0  0  0  0  0  0  0  0  0  0
    0.0000    0.0000    0.0000 C   0  0  0  0  0  0  0  0  0  0  0  0
    0.0000    0.0000    0.0000 C   0  0  0  0  0  0  0  0  0  0  0  0
    0.0000    0.0000    0.0000 O   0  0  0  0  0  0  0  0  0  0  0  0
    0.0000    0.0000    0.0000 C   0  0  0  0  0  0  0  0  0  0  0  0
    0.0000    0.0000    0.0000 C   0  0  0  0  0  0  0  0  0  0  0  0
    0.0000    0.0000    0.0000 C   0  0  0  0  0  0  0  0  0  0  0  0
    0.0000    0.0000    0.0000 C   0  0  0  0  0  0  0  0  0  0  0  0
    0.0000    0.0000    0.0000 C   0  0  0  0  0  0  0  0  0  0  0  0
    0.0000    0.0000    0.0000 C   0  0  0  0  0  0  0  0  0  0  0  0
    0.0000    0.0000    0.0000 C   0  0  0  0  0  0  0  0  0  0  0  0
    0.0000    0.0000    0.0000 C   0  0  0  0  0  0  0  0  0  0  0  0
    0.0000    0.0000    0.0000 N   0  0  0  0  0  0  0  0  0  0  0  0
    0.0000    0.0000    0.0000 C   0  0  0  0  0  0  0  0  0  0  0  0
    0.0000    0.0000    0.0000 C   0  0  0  0  0  0  0  0  0  0  0  0
    0.0000    0.0000    0.0000 C   0  0  0  0  0  0  0  0  0  0  0  0
    0.0000    0.0000    0.0000 C   0  0  0  0  0  0  0  0  0  0  0  0
    0.0000    0.0000    0.0000 S   0  0  0  0  0  0  0  0  0  0  0  0
    0.0000    0.0000    0.0000 C   0  0  0  0  0  0  0  0  0  0  0  0
    0.0000    0.0000    0.0000 C   0  0  0  0  0  0  0  0  0  0  0  0
    0.0000    0.0000    0.0000 C   0  0  0  0  0  0  0  0  0  0  0  0
    0.0000    0.0000    0.0000 N   0  0  0  0  0  0  0  0  0  0  0  0
  1  2  1  0
  2  3  2  0
  3  4  1  0
  4  5  1  0
  5  6  1  0
  6  7  1  0
  7  8  2  0
  7  9  1  0
  9 10  2  0
 10 11  1  0
 11 12  2  0
 12 13  1  0
 13 14  2  0
  4 15  2  0
 15 16  1  0
 16 17  3  0
 15 18  1  0
 18 19  1  0
 19 20  1  0
 20 21  2  0
 21 22  1  0
 22 23  1  0
 18 24  2  0
 24 25  1  0
 25 26  3  0
 24  2  1  0
 14  9  1  0
 23 19  2  0
M  END
>  <pIC50>  (260) 
6.54

>  <ChEMBL_ID>  (260) 
CHEMBL1171960

>  <document_journal>  (260) 
Eur. J. Med. Chem.

>  <bao_endpoint>  (260) 
BAO_0000190

>  <potential_duplicate>  (260) 
False

>  <uo_units>  (260) 
UO_0000065

>  <canonical_smiles>  (260) 
Nc1nc(SCC(=O)c2ccccc2)c(C#N)c(c3ccsc3)c1C#N

>  <parent_molecule_chembl_id>  (260) 
CHEMBL1171960

>  <assay_type>  (260) 
B

>  <src_id>  (260) 
1

>  <ligand_efficiency>  (260) 
{u'le': u'0.34', u'bei': u'17.37', u'sei': u'4.16', u'lle': u'2.79'}

>  <standard_flag>  (260) 
True

>  <molecule_chembl_id>  (260) 
CHEMBL1171960

>  <target_organism>  (260) 
Homo sapiens

>  <standard_units>  (260) 
nM

>  <record_id>  (260) 
922949

>  <document_chembl_id>  (260) 
CHEMBL1177872

>  <bao_format>  (260) 
BAO_0000219

>  <data_validity_description>  (260) 
None

>  <activity_id>  (260) 
3345950

>  <standard_type>  (260) 
IC50

>  <target_chembl_id>  (260) 
CHEMBL1862

>  <data_validity_comment>  (260) 
None

>  <published_value>  (260) 
0.29

>  <document_year>  (260) 
2010

>  <target_pref_name>  (260) 
Tyrosine-protein kinase ABL

>  <assay_chembl_id>  (260) 
CHEMBL1173925

>  <standard_relation>  (260) 
=

>  <assay_description>  (260) 
Inhibition of human recombinant histidine-tagged ABL (230-517) expressed in Sf9 cells by ELISA

>  <published_relation>  (260) 
=

>  <standard_value>  (260) 
290

>  <qudt_units>  (260) 
http://www.openphacts.org/units/Nanomolar

>  <target_tax_id>  (260) 
9606

>  <bao_label>  (260) 
cell-based format

>  <published_units>  (260) 
uM

>  <pchembl_value>  (260) 
6.54

>  <published_type>  (260) 
IC50

>  <activity_comment>  (260) 
None

$$$$

     RDKit          

 27 29  0  0  0  0  0  0  0  0999 V2000
    0.0000    0.0000    0.0000 N   0  0  0  0  0  0  0  0  0  0  0  0
    0.0000    0.0000    0.0000 C   0  0  0  0  0  0  0  0  0  0  0  0
    0.0000    0.0000    0.0000 N   0  0  0  0  0  0  0  0  0  0  0  0
    0.0000    0.0000    0.0000 C   0  0  0  0  0  0  0  0  0  0  0  0
    0.0000    0.0000    0.0000 S   0  0  0  0  0  0  0  0  0  0  0  0
    0.0000    0.0000    0.0000 C   0  0  0  0  0  0  0  0  0  0  0  0
    0.0000    0.0000    0.0000 C   0  0  0  0  0  0  0  0  0  0  0  0
    0.0000    0.0000    0.0000 O   0  0  0  0  0  0  0  0  0  0  0  0
    0.0000    0.0000    0.0000 C   0  0  0  0  0  0  0  0  0  0  0  0
    0.0000    0.0000    0.0000 C   0  0  0  0  0  0  0  0  0  0  0  0
    0.0000    0.0000    0.0000 C   0  0  0  0  0  0  0  0  0  0  0  0
    0.0000    0.0000    0.0000 C   0  0  0  0  0  0  0  0  0  0  0  0
    0.0000    0.0000    0.0000 Cl  0  0  0  0  0  0  0  0  0  0  0  0
    0.0000    0.0000    0.0000 C   0  0  0  0  0  0  0  0  0  0  0  0
    0.0000    0.0000    0.0000 C   0  0  0  0  0  0  0  0  0  0  0  0
    0.0000    0.0000    0.0000 C   0  0  0  0  0  0  0  0  0  0  0  0
    0.0000    0.0000    0.0000 C   0  0  0  0  0  0  0  0  0  0  0  0
    0.0000    0.0000    0.0000 N   0  0  0  0  0  0  0  0  0  0  0  0
    0.0000    0.0000    0.0000 C   0  0  0  0  0  0  0  0  0  0  0  0
    0.0000    0.0000    0.0000 C   0  0  0  0  0  0  0  0  0  0  0  0
    0.0000    0.0000    0.0000 C   0  0  0  0  0  0  0  0  0  0  0  0
    0.0000    0.0000    0.0000 C   0  0  0  0  0  0  0  0  0  0  0  0
    0.0000    0.0000    0.0000 S   0  0  0  0  0  0  0  0  0  0  0  0
    0.0000    0.0000    0.0000 C   0  0  0  0  0  0  0  0  0  0  0  0
    0.0000    0.0000    0.0000 C   0  0  0  0  0  0  0  0  0  0  0  0
    0.0000    0.0000    0.0000 C   0  0  0  0  0  0  0  0  0  0  0  0
    0.0000    0.0000    0.0000 N   0  0  0  0  0  0  0  0  0  0  0  0
  1  2  1  0
  2  3  2  0
  3  4  1  0
  4  5  1  0
  5  6  1  0
  6  7  1  0
  7  8  2  0
  7  9  1  0
  9 10  2  0
 10 11  1  0
 11 12  2  0
 12 13  1  0
 12 14  1  0
 14 15  2  0
  4 16  2  0
 16 17  1  0
 17 18  3  0
 16 19  1  0
 19 20  1  0
 20 21  1  0
 21 22  2  0
 22 23  1  0
 23 24  1  0
 19 25  2  0
 25 26  1  0
 26 27  3  0
 25  2  1  0
 15  9  1  0
 24 20  2  0
M  END
>  <pIC50>  (261) 
4.22

>  <ChEMBL_ID>  (261) 
CHEMBL1172147

>  <document_journal>  (261) 
Eur. J. Med. Chem.

>  <bao_endpoint>  (261) 
BAO_0000190

>  <potential_duplicate>  (261) 
False

>  <uo_units>  (261) 
UO_0000065

>  <canonical_smiles>  (261) 
Nc1nc(SCC(=O)c2ccc(Cl)cc2)c(C#N)c(c3ccsc3)c1C#N

>  <parent_molecule_chembl_id>  (261) 
CHEMBL1172147

>  <assay_type>  (261) 
B

>  <src_id>  (261) 
1

>  <ligand_efficiency>  (261) 
{u'le': u'0.21', u'bei': u'10.27', u'sei': u'2.69', u'lle': u'-0.19'}

>  <standard_flag>  (261) 
True

>  <molecule_chembl_id>  (261) 
CHEMBL1172147

>  <target_organism>  (261) 
Homo sapiens

>  <standard_units>  (261) 
nM

>  <record_id>  (261) 
922950

>  <document_chembl_id>  (261) 
CHEMBL1177872

>  <bao_format>  (261) 
BAO_0000219

>  <data_validity_description>  (261) 
None

>  <activity_id>  (261) 
3345951

>  <standard_type>  (261) 
IC50

>  <target_chembl_id>  (261) 
CHEMBL1862

>  <data_validity_comment>  (261) 
None

>  <published_value>  (261) 
60

>  <document_year>  (261) 
2010

>  <target_pref_name>  (261) 
Tyrosine-protein kinase ABL

>  <assay_chembl_id>  (261) 
CHEMBL1173925

>  <standard_relation>  (261) 
=

>  <assay_description>  (261) 
Inhibition of human recombinant histidine-tagged ABL (230-517) expressed in Sf9 cells by ELISA

>  <published_relation>  (261) 
=

>  <standard_value>  (261) 
60000

>  <qudt_units>  (261) 
http://www.openphacts.org/units/Nanomolar

>  <target_tax_id>  (261) 
9606

>  <bao_label>  (261) 
cell-based format

>  <published_units>  (261) 
uM

>  <pchembl_value>  (261) 
4.22

>  <published_type>  (261) 
IC50

>  <activity_comment>  (261) 
None

$$$$

     RDKit          

 26 29  0  0  0  0  0  0  0  0999 V2000
    0.0000    0.0000    0.0000 F   0  0  0  0  0  0  0  0  0  0  0  0
    0.0000    0.0000    0.0000 C   0  0  0  0  0  0  0  0  0  0  0  0
    0.0000    0.0000    0.0000 C   0  0  0  0  0  0  0  0  0  0  0  0
    0.0000    0.0000    0.0000 C   0  0  0  0  0  0  0  0  0  0  0  0
    0.0000    0.0000    0.0000 C   0  0  0  0  0  0  0  0  0  0  0  0
    0.0000    0.0000    0.0000 C   0  0  0  0  0  0  0  0  0  0  0  0
    0.0000    0.0000    0.0000 S   0  0  0  0  0  0  0  0  0  0  0  0
    0.0000    0.0000    0.0000 C   0  0  0  0  0  0  0  0  0  0  0  0
    0.0000    0.0000    0.0000 N   0  0  0  0  0  0  0  0  0  0  0  0
    0.0000    0.0000    0.0000 C   0  0  0  0  0  0  0  0  0  0  0  0
    0.0000    0.0000    0.0000 C   0  0  0  0  0  0  0  0  0  0  0  0
    0.0000    0.0000    0.0000 C   0  0  0  0  0  0  0  0  0  0  0  0
    0.0000    0.0000    0.0000 C   0  0  0  0  0  0  0  0  0  0  0  0
    0.0000    0.0000    0.0000 C   0  0  0  0  0  0  0  0  0  0  0  0
    0.0000    0.0000    0.0000 C   0  0  0  0  0  0  0  0  0  0  0  0
    0.0000    0.0000    0.0000 C   0  0  0  0  0  0  0  0  0  0  0  0
    0.0000    0.0000    0.0000 C   0  0  0  0  0  0  0  0  0  0  0  0
    0.0000    0.0000    0.0000 C   0  0  0  0  0  0  0  0  0  0  0  0
    0.0000    0.0000    0.0000 C   0  0  0  0  0  0  0  0  0  0  0  0
    0.0000    0.0000    0.0000 C   0  0  0  0  0  0  0  0  0  0  0  0
    0.0000    0.0000    0.0000 S   0  0  0  0  0  0  0  0  0  0  0  0
    0.0000    0.0000    0.0000 C   0  0  0  0  0  0  0  0  0  0  0  0
    0.0000    0.0000    0.0000 C   0  0  0  0  0  0  0  0  0  0  0  0
    0.0000    0.0000    0.0000 N   0  0  0  0  0  0  0  0  0  0  0  0
    0.0000    0.0000    0.0000 C   0  0  0  0  0  0  0  0  0  0  0  0
    0.0000    0.0000    0.0000 C   0  0  0  0  0  0  0  0  0  0  0  0
  1  2  1  0
  2  3  2  0
  3  4  1  0
  4  5  2  0
  5  6  1  0
  6  7  1  0
  7  8  1  0
  8  9  2  0
  9 10  1  0
 10 11  1  0
 11 12  1  0
 12 13  1  0
 13 14  1  0
 14 15  1  0
 15 16  1  0
 16 17  1  0
 17 18  2  0
 18 19  1  0
 19 20  2  0
 20 21  1  0
 16 22  2  0
 22 23  1  0
 23 24  3  0
  5 25  1  0
 25 26  2  0
 26  2  1  0
 22  8  1  0
 15 10  2  0
 21 17  1  0
M  END
>  <pIC50>  (262) 
4.13

>  <ChEMBL_ID>  (262) 
CHEMBL1172697

>  <document_journal>  (262) 
Eur. J. Med. Chem.

>  <bao_endpoint>  (262) 
BAO_0000190

>  <potential_duplicate>  (262) 
False

>  <uo_units>  (262) 
UO_0000065

>  <canonical_smiles>  (262) 
Fc1ccc(CSc2nc3CCCCc3c(c4cccs4)c2C#N)cc1

>  <parent_molecule_chembl_id>  (262) 
CHEMBL1172697

>  <assay_type>  (262) 
B

>  <src_id>  (262) 
1

>  <ligand_efficiency>  (262) 
{u'le': u'0.22', u'bei': u'10.86', u'sei': u'4.58', u'lle': u'-2.29'}

>  <standard_flag>  (262) 
True

>  <molecule_chembl_id>  (262) 
CHEMBL1172697

>  <target_organism>  (262) 
Homo sapiens

>  <standard_units>  (262) 
nM

>  <record_id>  (262) 
922983

>  <document_chembl_id>  (262) 
CHEMBL1177872

>  <bao_format>  (262) 
BAO_0000219

>  <data_validity_description>  (262) 
None

>  <activity_id>  (262) 
3345952

>  <standard_type>  (262) 
IC50

>  <target_chembl_id>  (262) 
CHEMBL1862

>  <data_validity_comment>  (262) 
None

>  <published_value>  (262) 
74

>  <document_year>  (262) 
2010

>  <target_pref_name>  (262) 
Tyrosine-protein kinase ABL

>  <assay_chembl_id>  (262) 
CHEMBL1173925

>  <standard_relation>  (262) 
=

>  <assay_description>  (262) 
Inhibition of human recombinant histidine-tagged ABL (230-517) expressed in Sf9 cells by ELISA

>  <published_relation>  (262) 
=

>  <standard_value>  (262) 
74000

>  <qudt_units>  (262) 
http://www.openphacts.org/units/Nanomolar

>  <target_tax_id>  (262) 
9606

>  <bao_label>  (262) 
cell-based format

>  <published_units>  (262) 
uM

>  <pchembl_value>  (262) 
4.13

>  <published_type>  (262) 
IC50

>  <activity_comment>  (262) 
None

$$$$

     RDKit          

 25 28  0  0  0  0  0  0  0  0999 V2000
    0.0000    0.0000    0.0000 N   0  0  0  0  0  0  0  0  0  0  0  0
    0.0000    0.0000    0.0000 C   0  0  0  0  0  0  0  0  0  0  0  0
    0.0000    0.0000    0.0000 C   0  0  0  0  0  0  0  0  0  0  0  0
    0.0000    0.0000    0.0000 C   0  0  0  0  0  0  0  0  0  0  0  0
    0.0000    0.0000    0.0000 S   0  0  0  0  0  0  0  0  0  0  0  0
    0.0000    0.0000    0.0000 C   0  0  0  0  0  0  0  0  0  0  0  0
    0.0000    0.0000    0.0000 C   0  0  0  0  0  0  0  0  0  0  0  0
    0.0000    0.0000    0.0000 C   0  0  0  0  0  0  0  0  0  0  0  0
    0.0000    0.0000    0.0000 C   0  0  0  0  0  0  0  0  0  0  0  0
    0.0000    0.0000    0.0000 C   0  0  0  0  0  0  0  0  0  0  0  0
    0.0000    0.0000    0.0000 C   0  0  0  0  0  0  0  0  0  0  0  0
    0.0000    0.0000    0.0000 C   0  0  0  0  0  0  0  0  0  0  0  0
    0.0000    0.0000    0.0000 N   0  0  0  0  0  0  0  0  0  0  0  0
    0.0000    0.0000    0.0000 C   0  0  0  0  0  0  0  0  0  0  0  0
    0.0000    0.0000    0.0000 C   0  0  0  0  0  0  0  0  0  0  0  0
    0.0000    0.0000    0.0000 C   0  0  0  0  0  0  0  0  0  0  0  0
    0.0000    0.0000    0.0000 C   0  0  0  0  0  0  0  0  0  0  0  0
    0.0000    0.0000    0.0000 C   0  0  0  0  0  0  0  0  0  0  0  0
    0.0000    0.0000    0.0000 C   0  0  0  0  0  0  0  0  0  0  0  0
    0.0000    0.0000    0.0000 C   0  0  0  0  0  0  0  0  0  0  0  0
    0.0000    0.0000    0.0000 C   0  0  0  0  0  0  0  0  0  0  0  0
    0.0000    0.0000    0.0000 C   0  0  0  0  0  0  0  0  0  0  0  0
    0.0000    0.0000    0.0000 C   0  0  0  0  0  0  0  0  0  0  0  0
    0.0000    0.0000    0.0000 C   0  0  0  0  0  0  0  0  0  0  0  0
    0.0000    0.0000    0.0000 S   0  0  0  0  0  0  0  0  0  0  0  0
  1  2  3  0
  2  3  1  0
  3  4  2  0
  4  5  1  0
  5  6  1  0
  6  7  1  0
  7  8  2  0
  8  9  1  0
  9 10  2  0
 10 11  1  0
 11 12  2  0
  4 13  1  0
 13 14  2  0
 14 15  1  0
 15 16  1  0
 16 17  1  0
 17 18  1  0
 18 19  1  0
 19 20  2  0
 20 21  1  0
 21 22  2  0
 22 23  1  0
 23 24  2  0
 24 25  1  0
 20  3  1  0
 12  7  1  0
 19 14  1  0
 25 21  1  0
M  END
>  <pIC50>  (263) 
4.14

>  <ChEMBL_ID>  (263) 
CHEMBL1171912

>  <document_journal>  (263) 
Eur. J. Med. Chem.

>  <bao_endpoint>  (263) 
BAO_0000190

>  <potential_duplicate>  (263) 
False

>  <uo_units>  (263) 
UO_0000065

>  <canonical_smiles>  (263) 
N#Cc1c(SCc2ccccc2)nc3CCCCc3c1c4cccs4

>  <parent_molecule_chembl_id>  (263) 
CHEMBL1171912

>  <assay_type>  (263) 
B

>  <src_id>  (263) 
1

>  <ligand_efficiency>  (263) 
{u'le': u'0.23', u'bei': u'11.43', u'sei': u'4.59', u'lle': u'-2.07'}

>  <standard_flag>  (263) 
True

>  <molecule_chembl_id>  (263) 
CHEMBL1171912

>  <target_organism>  (263) 
Homo sapiens

>  <standard_units>  (263) 
nM

>  <record_id>  (263) 
923021

>  <document_chembl_id>  (263) 
CHEMBL1177872

>  <bao_format>  (263) 
BAO_0000219

>  <data_validity_description>  (263) 
None

>  <activity_id>  (263) 
3345953

>  <standard_type>  (263) 
IC50

>  <target_chembl_id>  (263) 
CHEMBL1862

>  <data_validity_comment>  (263) 
None

>  <published_value>  (263) 
72

>  <document_year>  (263) 
2010

>  <target_pref_name>  (263) 
Tyrosine-protein kinase ABL

>  <assay_chembl_id>  (263) 
CHEMBL1173925

>  <standard_relation>  (263) 
=

>  <assay_description>  (263) 
Inhibition of human recombinant histidine-tagged ABL (230-517) expressed in Sf9 cells by ELISA

>  <published_relation>  (263) 
=

>  <standard_value>  (263) 
72000

>  <qudt_units>  (263) 
http://www.openphacts.org/units/Nanomolar

>  <target_tax_id>  (263) 
9606

>  <bao_label>  (263) 
cell-based format

>  <published_units>  (263) 
uM

>  <pchembl_value>  (263) 
4.14

>  <published_type>  (263) 
IC50

>  <activity_comment>  (263) 
None

$$$$

     RDKit          

 19 22  0  0  0  0  0  0  0  0999 V2000
    0.0000    0.0000    0.0000 C   0  0  0  0  0  0  0  0  0  0  0  0
    0.0000    0.0000    0.0000 N   0  0  0  0  0  0  0  0  0  0  0  0
    0.0000    0.0000    0.0000 N   0  0  0  0  0  0  0  0  0  0  0  0
    0.0000    0.0000    0.0000 C   0  0  0  0  0  0  0  0  0  0  0  0
    0.0000    0.0000    0.0000 C   0  0  0  0  0  0  0  0  0  0  0  0
    0.0000    0.0000    0.0000 C   0  0  0  0  0  0  0  0  0  0  0  0
    0.0000    0.0000    0.0000 C   0  0  0  0  0  0  0  0  0  0  0  0
    0.0000    0.0000    0.0000 N   0  0  0  0  0  0  0  0  0  0  0  0
    0.0000    0.0000    0.0000 C   0  0  0  0  0  0  0  0  0  0  0  0
    0.0000    0.0000    0.0000 N   0  0  0  0  0  0  0  0  0  0  0  0
    0.0000    0.0000    0.0000 C   0  0  0  0  0  0  0  0  0  0  0  0
    0.0000    0.0000    0.0000 C   0  0  0  0  0  0  0  0  0  0  0  0
    0.0000    0.0000    0.0000 C   0  0  0  0  0  0  0  0  0  0  0  0
    0.0000    0.0000    0.0000 C   0  0  0  0  0  0  0  0  0  0  0  0
    0.0000    0.0000    0.0000 N   0  0  0  0  0  0  0  0  0  0  0  0
    0.0000    0.0000    0.0000 N   0  0  0  0  0  0  0  0  0  0  0  0
    0.0000    0.0000    0.0000 C   0  0  0  0  0  0  0  0  0  0  0  0
    0.0000    0.0000    0.0000 N   0  0  0  0  0  0  0  0  0  0  0  0
    0.0000    0.0000    0.0000 C   0  0  0  0  0  0  0  0  0  0  0  0
  1  2  2  0
  2  3  1  0
  3  4  1  0
  4  5  2  0
  5  6  1  0
  6  7  1  0
  7  8  2  0
  8  9  1  0
  9 10  2  0
 10 11  1  0
 11 12  2  0
 12 13  1  0
 13 14  1  0
 14 15  2  0
 15 16  1  0
 16 17  1  0
 12 18  1  0
 18 19  1  0
  5  1  1  0
 19  6  2  0
 18  9  1  0
 17 13  2  0
M  END
>  <pIC50>  (264) 
6.36

>  <ChEMBL_ID>  (264) 
CHEMBL1171532

>  <document_journal>  (264) 
Bioorg. Med. Chem. Lett.

>  <bao_endpoint>  (264) 
BAO_0000190

>  <potential_duplicate>  (264) 
False

>  <uo_units>  (264) 
UO_0000065

>  <canonical_smiles>  (264) 
c1n[nH]cc1c2cnc3ncc(c4cn[nH]c4)n3c2

>  <parent_molecule_chembl_id>  (264) 
CHEMBL1171532

>  <assay_type>  (264) 
B

>  <src_id>  (264) 
1

>  <ligand_efficiency>  (264) 
{u'le': u'0.46', u'bei': u'25.3', u'sei': u'7.26', u'lle': u'5.82'}

>  <standard_flag>  (264) 
True

>  <molecule_chembl_id>  (264) 
CHEMBL1171532

>  <target_organism>  (264) 
Homo sapiens

>  <standard_units>  (264) 
nM

>  <record_id>  (264) 
921436

>  <document_chembl_id>  (264) 
CHEMBL1177828

>  <bao_format>  (264) 
BAO_0000357

>  <data_validity_description>  (264) 
None

>  <activity_id>  (264) 
3354351

>  <standard_type>  (264) 
IC50

>  <target_chembl_id>  (264) 
CHEMBL1862

>  <data_validity_comment>  (264) 
None

>  <published_value>  (264) 
0.44

>  <document_year>  (264) 
2010

>  <target_pref_name>  (264) 
Tyrosine-protein kinase ABL

>  <assay_chembl_id>  (264) 
CHEMBL1173984

>  <standard_relation>  (264) 
=

>  <assay_description>  (264) 
Inhibition of ABL1 by Z-lite assay

>  <published_relation>  (264) 
=

>  <standard_value>  (264) 
440

>  <qudt_units>  (264) 
http://www.openphacts.org/units/Nanomolar

>  <target_tax_id>  (264) 
9606

>  <bao_label>  (264) 
single protein format

>  <published_units>  (264) 
uM

>  <pchembl_value>  (264) 
6.36

>  <published_type>  (264) 
IC50

>  <activity_comment>  (264) 
None

$$$$

     RDKit          

 22 25  0  0  0  0  0  0  0  0999 V2000
    0.0000    0.0000    0.0000 N   0  0  0  0  0  0  0  0  0  0  0  0
    0.0000    0.0000    0.0000 C   0  0  0  0  0  0  0  0  0  0  0  0
    0.0000    0.0000    0.0000 C   0  0  0  0  0  0  0  0  0  0  0  0
    0.0000    0.0000    0.0000 C   0  0  0  0  0  0  0  0  0  0  0  0
    0.0000    0.0000    0.0000 C   0  0  0  0  0  0  0  0  0  0  0  0
    0.0000    0.0000    0.0000 C   0  0  0  0  0  0  0  0  0  0  0  0
    0.0000    0.0000    0.0000 C   0  0  0  0  0  0  0  0  0  0  0  0
    0.0000    0.0000    0.0000 C   0  0  0  0  0  0  0  0  0  0  0  0
    0.0000    0.0000    0.0000 C   0  0  0  0  0  0  0  0  0  0  0  0
    0.0000    0.0000    0.0000 C   0  0  0  0  0  0  0  0  0  0  0  0
    0.0000    0.0000    0.0000 N   0  0  0  0  0  0  0  0  0  0  0  0
    0.0000    0.0000    0.0000 C   0  0  0  0  0  0  0  0  0  0  0  0
    0.0000    0.0000    0.0000 C   0  0  0  0  0  0  0  0  0  0  0  0
    0.0000    0.0000    0.0000 N   0  0  0  0  0  0  0  0  0  0  0  0
    0.0000    0.0000    0.0000 C   0  0  0  0  0  0  0  0  0  0  0  0
    0.0000    0.0000    0.0000 C   0  0  0  0  0  0  0  0  0  0  0  0
    0.0000    0.0000    0.0000 N   0  0  0  0  0  0  0  0  0  0  0  0
    0.0000    0.0000    0.0000 C   0  0  0  0  0  0  0  0  0  0  0  0
    0.0000    0.0000    0.0000 C   0  0  0  0  0  0  0  0  0  0  0  0
    0.0000    0.0000    0.0000 N   0  0  0  0  0  0  0  0  0  0  0  0
    0.0000    0.0000    0.0000 N   0  0  0  0  0  0  0  0  0  0  0  0
    0.0000    0.0000    0.0000 C   0  0  0  0  0  0  0  0  0  0  0  0
  1  2  1  0
  2  3  1  0
  3  4  2  0
  4  5  1  0
  5  6  2  0
  6  7  1  0
  7  8  2  0
  6  9  1  0
  9 10  2  0
 10 11  1  0
 11 12  1  0
 12 13  2  0
 13 14  1  0
 14 15  2  0
 15 16  1  0
 16 17  2  0
 12 18  1  0
 18 19  1  0
 19 20  2  0
 20 21  1  0
 21 22  1  0
  8  3  1  0
 17  9  1  0
 15 11  1  0
 22 18  2  0
M  END
>  <pIC50>  (265) 
6.62

>  <ChEMBL_ID>  (265) 
CHEMBL1170747

>  <document_journal>  (265) 
Bioorg. Med. Chem. Lett.

>  <bao_endpoint>  (265) 
BAO_0000190

>  <potential_duplicate>  (265) 
False

>  <uo_units>  (265) 
UO_0000065

>  <canonical_smiles>  (265) 
NCc1ccc(cc1)c2cn3c(cnc3cn2)c4cn[nH]c4

>  <parent_molecule_chembl_id>  (265) 
CHEMBL1170747

>  <assay_type>  (265) 
B

>  <src_id>  (265) 
1

>  <ligand_efficiency>  (265) 
{u'le': u'0.41', u'bei': u'22.8', u'sei': u'7.8', u'lle': u'5.76'}

>  <standard_flag>  (265) 
True

>  <molecule_chembl_id>  (265) 
CHEMBL1170747

>  <target_organism>  (265) 
Homo sapiens

>  <standard_units>  (265) 
nM

>  <record_id>  (265) 
921304

>  <document_chembl_id>  (265) 
CHEMBL1177828

>  <bao_format>  (265) 
BAO_0000357

>  <data_validity_description>  (265) 
None

>  <activity_id>  (265) 
3354352

>  <standard_type>  (265) 
IC50

>  <target_chembl_id>  (265) 
CHEMBL1862

>  <data_validity_comment>  (265) 
None

>  <published_value>  (265) 
0.24

>  <document_year>  (265) 
2010

>  <target_pref_name>  (265) 
Tyrosine-protein kinase ABL

>  <assay_chembl_id>  (265) 
CHEMBL1173984

>  <standard_relation>  (265) 
=

>  <assay_description>  (265) 
Inhibition of ABL1 by Z-lite assay

>  <published_relation>  (265) 
=

>  <standard_value>  (265) 
240

>  <qudt_units>  (265) 
http://www.openphacts.org/units/Nanomolar

>  <target_tax_id>  (265) 
9606

>  <bao_label>  (265) 
single protein format

>  <published_units>  (265) 
uM

>  <pchembl_value>  (265) 
6.62

>  <published_type>  (265) 
IC50

>  <activity_comment>  (265) 
None

$$$$

     RDKit          

 22 25  0  0  0  0  0  0  0  0999 V2000
    0.0000    0.0000    0.0000 O   0  0  0  0  0  0  0  0  0  0  0  0
    0.0000    0.0000    0.0000 C   0  0  0  0  0  0  0  0  0  0  0  0
    0.0000    0.0000    0.0000 C   0  0  0  0  0  0  0  0  0  0  0  0
    0.0000    0.0000    0.0000 C   0  0  0  0  0  0  0  0  0  0  0  0
    0.0000    0.0000    0.0000 C   0  0  0  0  0  0  0  0  0  0  0  0
    0.0000    0.0000    0.0000 C   0  0  0  0  0  0  0  0  0  0  0  0
    0.0000    0.0000    0.0000 C   0  0  0  0  0  0  0  0  0  0  0  0
    0.0000    0.0000    0.0000 C   0  0  0  0  0  0  0  0  0  0  0  0
    0.0000    0.0000    0.0000 C   0  0  0  0  0  0  0  0  0  0  0  0
    0.0000    0.0000    0.0000 C   0  0  0  0  0  0  0  0  0  0  0  0
    0.0000    0.0000    0.0000 N   0  0  0  0  0  0  0  0  0  0  0  0
    0.0000    0.0000    0.0000 C   0  0  0  0  0  0  0  0  0  0  0  0
    0.0000    0.0000    0.0000 C   0  0  0  0  0  0  0  0  0  0  0  0
    0.0000    0.0000    0.0000 N   0  0  0  0  0  0  0  0  0  0  0  0
    0.0000    0.0000    0.0000 C   0  0  0  0  0  0  0  0  0  0  0  0
    0.0000    0.0000    0.0000 C   0  0  0  0  0  0  0  0  0  0  0  0
    0.0000    0.0000    0.0000 N   0  0  0  0  0  0  0  0  0  0  0  0
    0.0000    0.0000    0.0000 C   0  0  0  0  0  0  0  0  0  0  0  0
    0.0000    0.0000    0.0000 C   0  0  0  0  0  0  0  0  0  0  0  0
    0.0000    0.0000    0.0000 N   0  0  0  0  0  0  0  0  0  0  0  0
    0.0000    0.0000    0.0000 N   0  0  0  0  0  0  0  0  0  0  0  0
    0.0000    0.0000    0.0000 C   0  0  0  0  0  0  0  0  0  0  0  0
  1  2  1  0
  2  3  1  0
  3  4  2  0
  4  5  1  0
  5  6  2  0
  6  7  1  0
  7  8  2  0
  6  9  1  0
  9 10  2  0
 10 11  1  0
 11 12  1  0
 12 13  2  0
 13 14  1  0
 14 15  2  0
 15 16  1  0
 16 17  2  0
 12 18  1  0
 18 19  1  0
 19 20  2  0
 20 21  1  0
 21 22  1  0
  8  3  1  0
 17  9  1  0
 15 11  1  0
 22 18  2  0
M  END
>  <pIC50>  (266) 
6.52

>  <ChEMBL_ID>  (266) 
CHEMBL1170749

>  <document_journal>  (266) 
Bioorg. Med. Chem. Lett.

>  <bao_endpoint>  (266) 
BAO_0000190

>  <potential_duplicate>  (266) 
False

>  <uo_units>  (266) 
UO_0000065

>  <canonical_smiles>  (266) 
OCc1ccc(cc1)c2cn3c(cnc3cn2)c4cn[nH]c4

>  <parent_molecule_chembl_id>  (266) 
CHEMBL1170749

>  <assay_type>  (266) 
B

>  <src_id>  (266) 
1

>  <ligand_efficiency>  (266) 
{u'le': u'0.4', u'bei': u'22.39', u'sei': u'8.25', u'lle': u'5.37'}

>  <standard_flag>  (266) 
True

>  <molecule_chembl_id>  (266) 
CHEMBL1170749

>  <target_organism>  (266) 
Homo sapiens

>  <standard_units>  (266) 
nM

>  <record_id>  (266) 
921306

>  <document_chembl_id>  (266) 
CHEMBL1177828

>  <bao_format>  (266) 
BAO_0000357

>  <data_validity_description>  (266) 
None

>  <activity_id>  (266) 
3354353

>  <standard_type>  (266) 
IC50

>  <target_chembl_id>  (266) 
CHEMBL1862

>  <data_validity_comment>  (266) 
None

>  <published_value>  (266) 
0.3

>  <document_year>  (266) 
2010

>  <target_pref_name>  (266) 
Tyrosine-protein kinase ABL

>  <assay_chembl_id>  (266) 
CHEMBL1173984

>  <standard_relation>  (266) 
=

>  <assay_description>  (266) 
Inhibition of ABL1 by Z-lite assay

>  <published_relation>  (266) 
=

>  <standard_value>  (266) 
300

>  <qudt_units>  (266) 
http://www.openphacts.org/units/Nanomolar

>  <target_tax_id>  (266) 
9606

>  <bao_label>  (266) 
single protein format

>  <published_units>  (266) 
uM

>  <pchembl_value>  (266) 
6.52

>  <published_type>  (266) 
IC50

>  <activity_comment>  (266) 
None

$$$$

     RDKit          

 26 29  0  0  0  0  0  0  0  0999 V2000
    0.0000    0.0000    0.0000 N   0  0  0  0  0  0  0  0  0  0  0  0
    0.0000    0.0000    0.0000 S   0  0  0  0  0  0  0  0  0  0  0  0
    0.0000    0.0000    0.0000 O   0  0  0  0  0  0  0  0  0  0  0  0
    0.0000    0.0000    0.0000 O   0  0  0  0  0  0  0  0  0  0  0  0
    0.0000    0.0000    0.0000 C   0  0  0  0  0  0  0  0  0  0  0  0
    0.0000    0.0000    0.0000 C   0  0  0  0  0  0  0  0  0  0  0  0
    0.0000    0.0000    0.0000 C   0  0  0  0  0  0  0  0  0  0  0  0
    0.0000    0.0000    0.0000 C   0  0  0  0  0  0  0  0  0  0  0  0
    0.0000    0.0000    0.0000 N   0  0  0  0  0  0  0  0  0  0  0  0
    0.0000    0.0000    0.0000 C   0  0  0  0  0  0  0  0  0  0  0  0
    0.0000    0.0000    0.0000 N   0  0  0  0  0  0  0  0  0  0  0  0
    0.0000    0.0000    0.0000 C   0  0  0  0  0  0  0  0  0  0  0  0
    0.0000    0.0000    0.0000 N   0  0  0  0  0  0  0  0  0  0  0  0
    0.0000    0.0000    0.0000 C   0  0  0  0  0  0  0  0  0  0  0  0
    0.0000    0.0000    0.0000 N   0  0  0  0  0  0  0  0  0  0  0  0
    0.0000    0.0000    0.0000 C   0  0  0  0  0  0  0  0  0  0  0  0
    0.0000    0.0000    0.0000 N   0  0  0  0  0  0  0  0  0  0  0  0
    0.0000    0.0000    0.0000 C   0  0  0  0  0  0  0  0  0  0  0  0
    0.0000    0.0000    0.0000 N   0  0  0  0  0  0  0  0  0  0  0  0
    0.0000    0.0000    0.0000 C   0  0  0  0  0  0  0  0  0  0  0  0
    0.0000    0.0000    0.0000 C   0  0  0  0  0  0  0  0  0  0  0  0
    0.0000    0.0000    0.0000 O   0  0  0  0  0  0  0  0  0  0  0  0
    0.0000    0.0000    0.0000 C   0  0  0  0  0  0  0  0  0  0  0  0
    0.0000    0.0000    0.0000 C   0  0  0  0  0  0  0  0  0  0  0  0
    0.0000    0.0000    0.0000 C   0  0  0  0  0  0  0  0  0  0  0  0
    0.0000    0.0000    0.0000 C   0  0  0  0  0  0  0  0  0  0  0  0
  1  2  1  0
  2  3  2  0
  2  4  2  0
  2  5  1  0
  5  6  2  0
  6  7  1  0
  7  8  2  0
  8  9  1  0
  9 10  1  0
 10 11  2  0
 11 12  1  0
 12 13  2  0
 13 14  1  0
 14 15  1  0
 15 16  1  0
 16 17  2  0
 17 18  1  0
 12 19  1  0
 19 20  1  0
 20 21  1  0
 21 22  1  0
 22 23  1  0
 23 24  1  0
  8 25  1  0
 25 26  2  0
 26  5  1  0
 18 10  1  0
 18 14  2  0
 24 19  1  0
M  END
>  <pIC50>  (267) 
5.22

>  <ChEMBL_ID>  (267) 
CHEMBL1172957

>  <document_journal>  (267) 
Bioorg. Med. Chem.

>  <bao_endpoint>  (267) 
BAO_0000190

>  <potential_duplicate>  (267) 
False

>  <uo_units>  (267) 
UO_0000065

>  <canonical_smiles>  (267) 
NS(=O)(=O)c1ccc(Nc2nc(nc3[nH]cnc23)N4CCOCC4)cc1

>  <parent_molecule_chembl_id>  (267) 
CHEMBL1172957

>  <assay_type>  (267) 
B

>  <src_id>  (267) 
1

>  <ligand_efficiency>  (267) 
{u'le': u'0.27', u'bei': u'13.91', u'sei': u'3.54', u'lle': u'4.29'}

>  <standard_flag>  (267) 
True

>  <molecule_chembl_id>  (267) 
CHEMBL1172957

>  <target_organism>  (267) 
Homo sapiens

>  <standard_units>  (267) 
nM

>  <record_id>  (267) 
925502

>  <document_chembl_id>  (267) 
CHEMBL1177660

>  <bao_format>  (267) 
BAO_0000357

>  <data_validity_description>  (267) 
None

>  <activity_id>  (267) 
3359797

>  <standard_type>  (267) 
IC50

>  <target_chembl_id>  (267) 
CHEMBL1862

>  <data_validity_comment>  (267) 
None

>  <published_value>  (267) 
6

>  <document_year>  (267) 
2010

>  <target_pref_name>  (267) 
Tyrosine-protein kinase ABL

>  <assay_chembl_id>  (267) 
CHEMBL1177349

>  <standard_relation>  (267) 
=

>  <assay_description>  (267) 
Inhibition cABl

>  <published_relation>  (267) 
=

>  <standard_value>  (267) 
6000

>  <qudt_units>  (267) 
http://www.openphacts.org/units/Nanomolar

>  <target_tax_id>  (267) 
9606

>  <bao_label>  (267) 
single protein format

>  <published_units>  (267) 
uM

>  <pchembl_value>  (267) 
5.22

>  <published_type>  (267) 
IC50

>  <activity_comment>  (267) 
None

$$$$

     RDKit          

 38 42  0  0  0  0  0  0  0  0999 V2000
    0.0000    0.0000    0.0000 C   0  0  0  0  0  0  0  0  0  0  0  0
    0.0000    0.0000    0.0000 C   0  0  0  0  0  0  0  0  0  0  0  0
    0.0000    0.0000    0.0000 C   0  0  0  0  0  0  0  0  0  0  0  0
    0.0000    0.0000    0.0000 N   0  0  0  0  0  0  0  0  0  0  0  0
    0.0000    0.0000    0.0000 C   0  0  0  0  0  0  0  0  0  0  0  0
    0.0000    0.0000    0.0000 N   0  0  0  0  0  0  0  0  0  0  0  0
    0.0000    0.0000    0.0000 C   0  0  0  0  0  0  0  0  0  0  0  0
    0.0000    0.0000    0.0000 C   0  0  0  0  0  0  0  0  0  0  0  0
    0.0000    0.0000    0.0000 C   0  0  0  0  0  0  0  0  0  0  0  0
    0.0000    0.0000    0.0000 N   0  0  0  0  0  0  0  0  0  0  0  0
    0.0000    0.0000    0.0000 C   0  0  0  0  0  0  0  0  0  0  0  0
    0.0000    0.0000    0.0000 O   0  0  0  0  0  0  0  0  0  0  0  0
    0.0000    0.0000    0.0000 C   0  0  0  0  0  0  0  0  0  0  0  0
    0.0000    0.0000    0.0000 C   0  0  0  0  0  0  0  0  0  0  0  0
    0.0000    0.0000    0.0000 C   0  0  0  0  0  0  0  0  0  0  0  0
    0.0000    0.0000    0.0000 C   0  0  0  0  0  0  0  0  0  0  0  0
    0.0000    0.0000    0.0000 C   0  0  0  0  0  0  0  0  0  0  0  0
    0.0000    0.0000    0.0000 C   0  0  0  0  0  0  0  0  0  0  0  0
    0.0000    0.0000    0.0000 C   0  0  0  0  0  0  0  0  0  0  0  0
    0.0000    0.0000    0.0000 C   0  0  0  0  0  0  0  0  0  0  0  0
    0.0000    0.0000    0.0000 N   0  0  0  0  0  0  0  0  0  0  0  0
    0.0000    0.0000    0.0000 C   0  0  0  0  0  0  0  0  0  0  0  0
    0.0000    0.0000    0.0000 N   0  0  0  0  0  0  0  0  0  0  0  0
    0.0000    0.0000    0.0000 C   0  0  0  0  0  0  0  0  0  0  0  0
    0.0000    0.0000    0.0000 C   0  0  0  0  0  0  0  0  0  0  0  0
    0.0000    0.0000    0.0000 N   0  0  0  0  0  0  0  0  0  0  0  0
    0.0000    0.0000    0.0000 N   0  0  0  0  0  0  0  0  0  0  0  0
    0.0000    0.0000    0.0000 C   0  0  0  0  0  0  0  0  0  0  0  0
    0.0000    0.0000    0.0000 N   0  0  0  0  0  0  0  0  0  0  0  0
    0.0000    0.0000    0.0000 C   0  0  0  0  0  0  0  0  0  0  0  0
    0.0000    0.0000    0.0000 C   0  0  0  0  0  0  0  0  0  0  0  0
    0.0000    0.0000    0.0000 C   0  0  0  0  0  0  0  0  0  0  0  0
    0.0000    0.0000    0.0000 C   0  0  0  0  0  0  0  0  0  0  0  0
    0.0000    0.0000    0.0000 C   0  0  0  0  0  0  0  0  0  0  0  0
    0.0000    0.0000    0.0000 C   0  0  0  0  0  0  0  0  0  0  0  0
    0.0000    0.0000    0.0000 F   0  0  0  0  0  0  0  0  0  0  0  0
    0.0000    0.0000    0.0000 F   0  0  0  0  0  0  0  0  0  0  0  0
    0.0000    0.0000    0.0000 F   0  0  0  0  0  0  0  0  0  0  0  0
  1  2  1  0
  2  3  2  0
  3  4  1  0
  4  5  1  0
  5  6  2  0
  4  7  1  0
  7  8  2  0
  8  9  1  0
  9 10  1  0
 10 11  1  0
 11 12  2  0
 11 13  1  0
 13 14  2  0
 14 15  1  0
 15 16  2  0
 16 17  1  0
 16 18  1  0
 18 19  1  0
 19 20  2  0
 20 21  1  0
 21 22  1  0
 22 23  2  0
 23 24  1  0
 24 25  2  0
 25 26  1  0
 25 27  1  0
 27 28  2  0
 28 29  1  0
 29 30  2  0
 18 31  2  0
  9 32  2  0
 32 33  1  0
 33 34  2  0
 33 35  1  0
 35 36  1  0
 35 37  1  0
 35 38  1  0
  6  2  1  0
 34  7  1  0
 31 13  1  0
 30 21  1  0
 30 24  1  0
M  END
>  <pIC50>  (268) 
8.8

>  <ChEMBL_ID>  (268) 
CHEMBL1171679

>  <document_journal>  (268) 
J. Med. Chem.

>  <bao_endpoint>  (268) 
BAO_0000190

>  <potential_duplicate>  (268) 
False

>  <uo_units>  (268) 
UO_0000065

>  <canonical_smiles>  (268) 
Cc1cn(cn1)c2cc(NC(=O)c3ccc(C)c(\C=C\n4cnc5c(N)ncnc45)c3)cc(c2)C(F)(F)F

>  <parent_molecule_chembl_id>  (268) 
CHEMBL1171679

>  <assay_type>  (268) 
B

>  <src_id>  (268) 
1

>  <ligand_efficiency>  (268) 
{u'le': u'0.32', u'bei': u'16.96', u'sei': u'7.55', u'lle': u'5.35'}

>  <standard_flag>  (268) 
True

>  <molecule_chembl_id>  (268) 
CHEMBL1171679

>  <target_organism>  (268) 
Homo sapiens

>  <standard_units>  (268) 
nM

>  <record_id>  (268) 
923629

>  <document_chembl_id>  (268) 
CHEMBL1177713

>  <bao_format>  (268) 
BAO_0000357

>  <data_validity_description>  (268) 
None

>  <activity_id>  (268) 
3360169

>  <standard_type>  (268) 
IC50

>  <target_chembl_id>  (268) 
CHEMBL1862

>  <data_validity_comment>  (268) 
None

>  <published_value>  (268) 
1.6

>  <document_year>  (268) 
2010

>  <target_pref_name>  (268) 
Tyrosine-protein kinase ABL

>  <assay_chembl_id>  (268) 
CHEMBL1176860

>  <standard_relation>  (268) 
=

>  <assay_description>  (268) 
Inhibition of wild type human ABL after 1 hr by TR-FRET assay

>  <published_relation>  (268) 
=

>  <standard_value>  (268) 
1.6

>  <qudt_units>  (268) 
http://www.openphacts.org/units/Nanomolar

>  <target_tax_id>  (268) 
9606

>  <bao_label>  (268) 
single protein format

>  <published_units>  (268) 
nM

>  <pchembl_value>  (268) 
8.8

>  <published_type>  (268) 
IC50

>  <activity_comment>  (268) 
None

$$$$

     RDKit          

 35 39  0  0  0  0  0  0  0  0999 V2000
    0.0000    0.0000    0.0000 C   0  0  0  0  0  0  0  0  0  0  0  0
    0.0000    0.0000    0.0000 C   0  0  0  0  0  0  0  0  0  0  0  0
    0.0000    0.0000    0.0000 C   0  0  0  0  0  0  0  0  0  0  0  0
    0.0000    0.0000    0.0000 C   0  0  0  0  0  0  0  0  0  0  0  0
    0.0000    0.0000    0.0000 C   0  0  0  0  0  0  0  0  0  0  0  0
    0.0000    0.0000    0.0000 C   0  0  0  0  0  0  0  0  0  0  0  0
    0.0000    0.0000    0.0000 C   0  0  0  0  0  0  0  0  0  0  0  0
    0.0000    0.0000    0.0000 C   0  0  0  0  0  0  0  0  0  0  0  0
    0.0000    0.0000    0.0000 C   0  0  0  0  0  0  0  0  0  0  0  0
    0.0000    0.0000    0.0000 N   0  0  0  0  0  0  0  0  0  0  0  0
    0.0000    0.0000    0.0000 C   0  0  0  0  0  0  0  0  0  0  0  0
    0.0000    0.0000    0.0000 N   0  0  0  0  0  0  0  0  0  0  0  0
    0.0000    0.0000    0.0000 C   0  0  0  0  0  0  0  0  0  0  0  0
    0.0000    0.0000    0.0000 C   0  0  0  0  0  0  0  0  0  0  0  0
    0.0000    0.0000    0.0000 N   0  0  0  0  0  0  0  0  0  0  0  0
    0.0000    0.0000    0.0000 C   0  0  0  0  0  0  0  0  0  0  0  0
    0.0000    0.0000    0.0000 C   0  0  0  0  0  0  0  0  0  0  0  0
    0.0000    0.0000    0.0000 C   0  0  0  0  0  0  0  0  0  0  0  0
    0.0000    0.0000    0.0000 N   0  0  0  0  0  0  0  0  0  0  0  0
    0.0000    0.0000    0.0000 C   0  0  0  0  0  0  0  0  0  0  0  0
    0.0000    0.0000    0.0000 N   0  0  0  0  0  0  0  0  0  0  0  0
    0.0000    0.0000    0.0000 C   0  0  0  0  0  0  0  0  0  0  0  0
    0.0000    0.0000    0.0000 C   0  0  0  0  0  0  0  0  0  0  0  0
    0.0000    0.0000    0.0000 O   0  0  0  0  0  0  0  0  0  0  0  0
    0.0000    0.0000    0.0000 N   0  0  0  0  0  0  0  0  0  0  0  0
    0.0000    0.0000    0.0000 C   0  0  0  0  0  0  0  0  0  0  0  0
    0.0000    0.0000    0.0000 C   0  0  0  0  0  0  0  0  0  0  0  0
    0.0000    0.0000    0.0000 C   0  0  0  0  0  0  0  0  0  0  0  0
    0.0000    0.0000    0.0000 C   0  0  0  0  0  0  0  0  0  0  0  0
    0.0000    0.0000    0.0000 C   0  0  0  0  0  0  0  0  0  0  0  0
    0.0000    0.0000    0.0000 N   0  0  0  0  0  0  0  0  0  0  0  0
    0.0000    0.0000    0.0000 C   0  0  0  0  0  0  0  0  0  0  0  0
    0.0000    0.0000    0.0000 F   0  0  0  0  0  0  0  0  0  0  0  0
    0.0000    0.0000    0.0000 F   0  0  0  0  0  0  0  0  0  0  0  0
    0.0000    0.0000    0.0000 F   0  0  0  0  0  0  0  0  0  0  0  0
  1  2  1  0
  2  3  2  0
  3  4  1  0
  4  5  2  0
  5  6  1  0
  6  7  2  0
  7  8  1  0
  8  9  3  0
  9 10  1  0
 10 11  1  0
 11 12  2  0
 12 13  1  0
 13 14  2  0
 14 15  1  0
 15 16  1  0
 16 17  1  0
 17 18  1  0
 14 19  1  0
 19 20  2  0
 20 21  1  0
 21 22  2  0
  5 23  1  0
 23 24  2  0
 23 25  1  0
 25 26  1  0
 26 27  2  0
 27 28  1  0
 28 29  2  0
 29 30  1  0
 30 31  2  0
 28 32  1  0
 32 33  1  0
 32 34  1  0
 32 35  1  0
  7  2  1  0
 22 10  1  0
 22 13  1  0
 18 16  1  0
 31 26  1  0
M  END
>  <pIC50>  (269) 
7.52

>  <ChEMBL_ID>  (269) 
CHEMBL1169875

>  <document_journal>  (269) 
J. Med. Chem.

>  <bao_endpoint>  (269) 
BAO_0000190

>  <potential_duplicate>  (269) 
False

>  <uo_units>  (269) 
UO_0000065

>  <canonical_smiles>  (269) 
Cc1ccc(cc1C#Cn2cnc3c(NC4CC4)ncnc23)C(=O)Nc5cc(ccn5)C(F)(F)F

>  <parent_molecule_chembl_id>  (269) 
CHEMBL1169875

>  <assay_type>  (269) 
B

>  <src_id>  (269) 
1

>  <ligand_efficiency>  (269) 
{u'le': u'0.29', u'bei': u'15.76', u'sei': u'7.71', u'lle': u'3.24'}

>  <standard_flag>  (269) 
True

>  <molecule_chembl_id>  (269) 
CHEMBL1169875

>  <target_organism>  (269) 
Homo sapiens

>  <standard_units>  (269) 
nM

>  <record_id>  (269) 
923631

>  <document_chembl_id>  (269) 
CHEMBL1177713

>  <bao_format>  (269) 
BAO_0000357

>  <data_validity_description>  (269) 
None

>  <activity_id>  (269) 
3360171

>  <standard_type>  (269) 
IC50

>  <target_chembl_id>  (269) 
CHEMBL1862

>  <data_validity_comment>  (269) 
None

>  <published_value>  (269) 
30

>  <document_year>  (269) 
2010

>  <target_pref_name>  (269) 
Tyrosine-protein kinase ABL

>  <assay_chembl_id>  (269) 
CHEMBL1176860

>  <standard_relation>  (269) 
=

>  <assay_description>  (269) 
Inhibition of wild type human ABL after 1 hr by TR-FRET assay

>  <published_relation>  (269) 
=

>  <standard_value>  (269) 
30

>  <qudt_units>  (269) 
http://www.openphacts.org/units/Nanomolar

>  <target_tax_id>  (269) 
9606

>  <bao_label>  (269) 
single protein format

>  <published_units>  (269) 
nM

>  <pchembl_value>  (269) 
7.52

>  <published_type>  (269) 
IC50

>  <activity_comment>  (269) 
None

$$$$

     RDKit          

 34 38  0  0  0  0  0  0  0  0999 V2000
    0.0000    0.0000    0.0000 C   0  0  0  0  0  0  0  0  0  0  0  0
    0.0000    0.0000    0.0000 C   0  0  0  0  0  0  0  0  0  0  0  0
    0.0000    0.0000    0.0000 C   0  0  0  0  0  0  0  0  0  0  0  0
    0.0000    0.0000    0.0000 C   0  0  0  0  0  0  0  0  0  0  0  0
    0.0000    0.0000    0.0000 C   0  0  0  0  0  0  0  0  0  0  0  0
    0.0000    0.0000    0.0000 C   0  0  0  0  0  0  0  0  0  0  0  0
    0.0000    0.0000    0.0000 C   0  0  0  0  0  0  0  0  0  0  0  0
    0.0000    0.0000    0.0000 C   0  0  0  0  0  0  0  0  0  0  0  0
    0.0000    0.0000    0.0000 C   0  0  0  0  0  0  0  0  0  0  0  0
    0.0000    0.0000    0.0000 N   0  0  0  0  0  0  0  0  0  0  0  0
    0.0000    0.0000    0.0000 C   0  0  0  0  0  0  0  0  0  0  0  0
    0.0000    0.0000    0.0000 N   0  0  0  0  0  0  0  0  0  0  0  0
    0.0000    0.0000    0.0000 C   0  0  0  0  0  0  0  0  0  0  0  0
    0.0000    0.0000    0.0000 C   0  0  0  0  0  0  0  0  0  0  0  0
    0.0000    0.0000    0.0000 N   0  0  0  0  0  0  0  0  0  0  0  0
    0.0000    0.0000    0.0000 C   0  0  0  0  0  0  0  0  0  0  0  0
    0.0000    0.0000    0.0000 C   0  0  0  0  0  0  0  0  0  0  0  0
    0.0000    0.0000    0.0000 C   0  0  0  0  0  0  0  0  0  0  0  0
    0.0000    0.0000    0.0000 N   0  0  0  0  0  0  0  0  0  0  0  0
    0.0000    0.0000    0.0000 C   0  0  0  0  0  0  0  0  0  0  0  0
    0.0000    0.0000    0.0000 N   0  0  0  0  0  0  0  0  0  0  0  0
    0.0000    0.0000    0.0000 C   0  0  0  0  0  0  0  0  0  0  0  0
    0.0000    0.0000    0.0000 C   0  0  0  0  0  0  0  0  0  0  0  0
    0.0000    0.0000    0.0000 O   0  0  0  0  0  0  0  0  0  0  0  0
    0.0000    0.0000    0.0000 N   0  0  0  0  0  0  0  0  0  0  0  0
    0.0000    0.0000    0.0000 C   0  0  0  0  0  0  0  0  0  0  0  0
    0.0000    0.0000    0.0000 C   0  0  0  0  0  0  0  0  0  0  0  0
    0.0000    0.0000    0.0000 C   0  0  0  0  0  0  0  0  0  0  0  0
    0.0000    0.0000    0.0000 O   0  0  0  0  0  0  0  0  0  0  0  0
    0.0000    0.0000    0.0000 N   0  0  0  0  0  0  0  0  0  0  0  0
    0.0000    0.0000    0.0000 C   0  0  0  0  0  0  0  0  0  0  0  0
    0.0000    0.0000    0.0000 F   0  0  0  0  0  0  0  0  0  0  0  0
    0.0000    0.0000    0.0000 F   0  0  0  0  0  0  0  0  0  0  0  0
    0.0000    0.0000    0.0000 F   0  0  0  0  0  0  0  0  0  0  0  0
  1  2  1  0
  2  3  2  0
  3  4  1  0
  4  5  2  0
  5  6  1  0
  6  7  2  0
  7  8  1  0
  8  9  2  0
  9 10  1  0
 10 11  1  0
 11 12  2  0
 12 13  1  0
 13 14  2  0
 14 15  1  0
 15 16  1  0
 16 17  1  0
 17 18  1  0
 14 19  1  0
 19 20  2  0
 20 21  1  0
 21 22  2  0
  5 23  1  0
 23 24  2  0
 23 25  1  0
 25 26  1  0
 26 27  1  0
 27 28  2  0
 28 29  1  0
 29 30  1  0
 28 31  1  0
 31 32  1  0
 31 33  1  0
 31 34  1  0
  7  2  1  0
 22 10  1  0
 22 13  1  0
 18 16  1  0
 30 26  2  0
M  END
>  <pIC50>  (270) 
7.64

>  <ChEMBL_ID>  (270) 
CHEMBL1169876

>  <document_journal>  (270) 
J. Med. Chem.

>  <bao_endpoint>  (270) 
BAO_0000190

>  <potential_duplicate>  (270) 
False

>  <uo_units>  (270) 
UO_0000065

>  <canonical_smiles>  (270) 
Cc1ccc(cc1\C=C\n2cnc3c(NC4CC4)ncnc23)C(=O)Nc5cc(on5)C(F)(F)F

>  <parent_molecule_chembl_id>  (270) 
CHEMBL1169876

>  <assay_type>  (270) 
B

>  <src_id>  (270) 
1

>  <ligand_efficiency>  (270) 
{u'le': u'0.31', u'bei': u'16.27', u'sei': u'6.9', u'lle': u'3.81'}

>  <standard_flag>  (270) 
True

>  <molecule_chembl_id>  (270) 
CHEMBL1169876

>  <target_organism>  (270) 
Homo sapiens

>  <standard_units>  (270) 
nM

>  <record_id>  (270) 
923632

>  <document_chembl_id>  (270) 
CHEMBL1177713

>  <bao_format>  (270) 
BAO_0000357

>  <data_validity_description>  (270) 
None

>  <activity_id>  (270) 
3360172

>  <standard_type>  (270) 
IC50

>  <target_chembl_id>  (270) 
CHEMBL1862

>  <data_validity_comment>  (270) 
None

>  <published_value>  (270) 
23

>  <document_year>  (270) 
2010

>  <target_pref_name>  (270) 
Tyrosine-protein kinase ABL

>  <assay_chembl_id>  (270) 
CHEMBL1176860

>  <standard_relation>  (270) 
=

>  <assay_description>  (270) 
Inhibition of wild type human ABL after 1 hr by TR-FRET assay

>  <published_relation>  (270) 
=

>  <standard_value>  (270) 
23

>  <qudt_units>  (270) 
http://www.openphacts.org/units/Nanomolar

>  <target_tax_id>  (270) 
9606

>  <bao_label>  (270) 
single protein format

>  <published_units>  (270) 
nM

>  <pchembl_value>  (270) 
7.64

>  <published_type>  (270) 
IC50

>  <activity_comment>  (270) 
None

$$$$

     RDKit          

 34 38  0  0  0  0  0  0  0  0999 V2000
    0.0000    0.0000    0.0000 C   0  0  0  0  0  0  0  0  0  0  0  0
    0.0000    0.0000    0.0000 C   0  0  0  0  0  0  0  0  0  0  0  0
    0.0000    0.0000    0.0000 C   0  0  0  0  0  0  0  0  0  0  0  0
    0.0000    0.0000    0.0000 C   0  0  0  0  0  0  0  0  0  0  0  0
    0.0000    0.0000    0.0000 C   0  0  0  0  0  0  0  0  0  0  0  0
    0.0000    0.0000    0.0000 C   0  0  0  0  0  0  0  0  0  0  0  0
    0.0000    0.0000    0.0000 C   0  0  0  0  0  0  0  0  0  0  0  0
    0.0000    0.0000    0.0000 C   0  0  0  0  0  0  0  0  0  0  0  0
    0.0000    0.0000    0.0000 C   0  0  0  0  0  0  0  0  0  0  0  0
    0.0000    0.0000    0.0000 N   0  0  0  0  0  0  0  0  0  0  0  0
    0.0000    0.0000    0.0000 C   0  0  0  0  0  0  0  0  0  0  0  0
    0.0000    0.0000    0.0000 N   0  0  0  0  0  0  0  0  0  0  0  0
    0.0000    0.0000    0.0000 C   0  0  0  0  0  0  0  0  0  0  0  0
    0.0000    0.0000    0.0000 C   0  0  0  0  0  0  0  0  0  0  0  0
    0.0000    0.0000    0.0000 N   0  0  0  0  0  0  0  0  0  0  0  0
    0.0000    0.0000    0.0000 C   0  0  0  0  0  0  0  0  0  0  0  0
    0.0000    0.0000    0.0000 C   0  0  0  0  0  0  0  0  0  0  0  0
    0.0000    0.0000    0.0000 C   0  0  0  0  0  0  0  0  0  0  0  0
    0.0000    0.0000    0.0000 C   0  0  0  0  0  0  0  0  0  0  0  0
    0.0000    0.0000    0.0000 C   0  0  0  0  0  0  0  0  0  0  0  0
    0.0000    0.0000    0.0000 C   0  0  0  0  0  0  0  0  0  0  0  0
    0.0000    0.0000    0.0000 C   0  0  0  0  0  0  0  0  0  0  0  0
    0.0000    0.0000    0.0000 C   0  0  0  0  0  0  0  0  0  0  0  0
    0.0000    0.0000    0.0000 O   0  0  0  0  0  0  0  0  0  0  0  0
    0.0000    0.0000    0.0000 N   0  0  0  0  0  0  0  0  0  0  0  0
    0.0000    0.0000    0.0000 C   0  0  0  0  0  0  0  0  0  0  0  0
    0.0000    0.0000    0.0000 C   0  0  0  0  0  0  0  0  0  0  0  0
    0.0000    0.0000    0.0000 C   0  0  0  0  0  0  0  0  0  0  0  0
    0.0000    0.0000    0.0000 O   0  0  0  0  0  0  0  0  0  0  0  0
    0.0000    0.0000    0.0000 N   0  0  0  0  0  0  0  0  0  0  0  0
    0.0000    0.0000    0.0000 C   0  0  0  0  0  0  0  0  0  0  0  0
    0.0000    0.0000    0.0000 F   0  0  0  0  0  0  0  0  0  0  0  0
    0.0000    0.0000    0.0000 F   0  0  0  0  0  0  0  0  0  0  0  0
    0.0000    0.0000    0.0000 F   0  0  0  0  0  0  0  0  0  0  0  0
  1  2  1  0
  2  3  2  0
  3  4  1  0
  4  5  2  0
  5  6  1  0
  6  7  2  0
  7  8  1  0
  8  9  3  0
  9 10  1  0
 10 11  1  0
 11 12  2  0
 12 13  1  0
 13 14  2  0
 14 15  1  0
 15 16  1  0
 16 17  1  0
 17 18  1  0
 14 19  1  0
 19 20  2  0
 20 21  1  0
 21 22  2  0
  5 23  1  0
 23 24  2  0
 23 25  1  0
 25 26  1  0
 26 27  1  0
 27 28  2  0
 28 29  1  0
 29 30  1  0
 28 31  1  0
 31 32  1  0
 31 33  1  0
 31 34  1  0
  7  2  1  0
 22 10  1  0
 22 13  1  0
 18 16  1  0
 30 26  2  0
M  END
>  <pIC50>  (271) 
7.55

>  <ChEMBL_ID>  (271) 
CHEMBL1171280

>  <document_journal>  (271) 
J. Med. Chem.

>  <bao_endpoint>  (271) 
BAO_0000190

>  <potential_duplicate>  (271) 
False

>  <uo_units>  (271) 
UO_0000065

>  <canonical_smiles>  (271) 
Cc1ccc(cc1C#Cn2cnc3c(NC4CC4)cccc23)C(=O)Nc5cc(on5)C(F)(F)F

>  <parent_molecule_chembl_id>  (271) 
CHEMBL1171280

>  <assay_type>  (271) 
B

>  <src_id>  (271) 
1

>  <ligand_efficiency>  (271) 
{u'le': u'0.3', u'bei': u'16.23', u'sei': u'8.89', u'lle': u'2.34'}

>  <standard_flag>  (271) 
True

>  <molecule_chembl_id>  (271) 
CHEMBL1171280

>  <target_organism>  (271) 
Homo sapiens

>  <standard_units>  (271) 
nM

>  <record_id>  (271) 
923712

>  <document_chembl_id>  (271) 
CHEMBL1177713

>  <bao_format>  (271) 
BAO_0000357

>  <data_validity_description>  (271) 
None

>  <activity_id>  (271) 
3360173

>  <standard_type>  (271) 
IC50

>  <target_chembl_id>  (271) 
CHEMBL1862

>  <data_validity_comment>  (271) 
None

>  <published_value>  (271) 
28

>  <document_year>  (271) 
2010

>  <target_pref_name>  (271) 
Tyrosine-protein kinase ABL

>  <assay_chembl_id>  (271) 
CHEMBL1176860

>  <standard_relation>  (271) 
=

>  <assay_description>  (271) 
Inhibition of wild type human ABL after 1 hr by TR-FRET assay

>  <published_relation>  (271) 
=

>  <standard_value>  (271) 
28

>  <qudt_units>  (271) 
http://www.openphacts.org/units/Nanomolar

>  <target_tax_id>  (271) 
9606

>  <bao_label>  (271) 
single protein format

>  <published_units>  (271) 
nM

>  <pchembl_value>  (271) 
7.55

>  <published_type>  (271) 
IC50

>  <activity_comment>  (271) 
None

$$$$

     RDKit          

 37 41  0  0  0  0  0  0  0  0999 V2000
    0.0000    0.0000    0.0000 C   0  0  0  0  0  0  0  0  0  0  0  0
    0.0000    0.0000    0.0000 C   0  0  0  0  0  0  0  0  0  0  0  0
    0.0000    0.0000    0.0000 C   0  0  0  0  0  0  0  0  0  0  0  0
    0.0000    0.0000    0.0000 C   0  0  0  0  0  0  0  0  0  0  0  0
    0.0000    0.0000    0.0000 C   0  0  0  0  0  0  0  0  0  0  0  0
    0.0000    0.0000    0.0000 C   0  0  0  0  0  0  0  0  0  0  0  0
    0.0000    0.0000    0.0000 C   0  0  0  0  0  0  0  0  0  0  0  0
    0.0000    0.0000    0.0000 C   0  0  0  0  0  0  0  0  0  0  0  0
    0.0000    0.0000    0.0000 C   0  0  0  0  0  0  0  0  0  0  0  0
    0.0000    0.0000    0.0000 C   0  0  0  0  0  0  0  0  0  0  0  0
    0.0000    0.0000    0.0000 C   0  0  0  0  0  0  0  0  0  0  0  0
    0.0000    0.0000    0.0000 N   0  0  0  0  0  0  0  0  0  0  0  0
    0.0000    0.0000    0.0000 C   0  0  0  0  0  0  0  0  0  0  0  0
    0.0000    0.0000    0.0000 C   0  0  0  0  0  0  0  0  0  0  0  0
    0.0000    0.0000    0.0000 N   0  0  0  0  0  0  0  0  0  0  0  0
    0.0000    0.0000    0.0000 C   0  0  0  0  0  0  0  0  0  0  0  0
    0.0000    0.0000    0.0000 C   0  0  0  0  0  0  0  0  0  0  0  0
    0.0000    0.0000    0.0000 C   0  0  0  0  0  0  0  0  0  0  0  0
    0.0000    0.0000    0.0000 N   0  0  0  0  0  0  0  0  0  0  0  0
    0.0000    0.0000    0.0000 C   0  0  0  0  0  0  0  0  0  0  0  0
    0.0000    0.0000    0.0000 O   0  0  0  0  0  0  0  0  0  0  0  0
    0.0000    0.0000    0.0000 N   0  0  0  0  0  0  0  0  0  0  0  0
    0.0000    0.0000    0.0000 C   0  0  0  0  0  0  0  0  0  0  0  0
    0.0000    0.0000    0.0000 C   0  0  0  0  0  0  0  0  0  0  0  0
    0.0000    0.0000    0.0000 C   0  0  0  0  0  0  0  0  0  0  0  0
    0.0000    0.0000    0.0000 C   0  0  0  0  0  0  0  0  0  0  0  0
    0.0000    0.0000    0.0000 C   0  0  0  0  0  0  0  0  0  0  0  0
    0.0000    0.0000    0.0000 C   0  0  0  0  0  0  0  0  0  0  0  0
    0.0000    0.0000    0.0000 C   0  0  0  0  0  0  0  0  0  0  0  0
    0.0000    0.0000    0.0000 F   0  0  0  0  0  0  0  0  0  0  0  0
    0.0000    0.0000    0.0000 F   0  0  0  0  0  0  0  0  0  0  0  0
    0.0000    0.0000    0.0000 F   0  0  0  0  0  0  0  0  0  0  0  0
    0.0000    0.0000    0.0000 N   0  0  0  0  0  0  0  0  0  0  0  0
    0.0000    0.0000    0.0000 C   0  0  0  0  0  0  0  0  0  0  0  0
    0.0000    0.0000    0.0000 C   0  0  0  0  0  0  0  0  0  0  0  0
    0.0000    0.0000    0.0000 N   0  0  0  0  0  0  0  0  0  0  0  0
    0.0000    0.0000    0.0000 C   0  0  0  0  0  0  0  0  0  0  0  0
  1  2  1  0
  2  3  2  0
  3  4  1  0
  4  5  2  0
  5  6  1  0
  6  7  2  0
  7  8  1  0
  8  9  3  0
  9 10  1  0
 10 11  2  0
 11 12  1  0
 12 13  2  0
 13 14  1  0
 14 15  1  0
 14 16  2  0
 16 17  1  0
 17 18  2  0
 18 19  1  0
  5 20  1  0
 20 21  2  0
 20 22  1  0
 22 23  1  0
 23 24  2  0
 24 25  1  0
 25 26  2  0
 26 27  1  0
 27 28  2  0
 27 29  1  0
 29 30  1  0
 29 31  1  0
 29 32  1  0
 25 33  1  0
 33 34  1  0
 34 35  2  0
 35 36  1  0
 36 37  2  0
  7  2  1  0
 19 10  1  0
 19 13  1  0
 28 23  1  0
 37 33  1  0
M  END
>  <pIC50>  (272) 
8.64

>  <ChEMBL_ID>  (272) 
CHEMBL1172397

>  <document_journal>  (272) 
J. Med. Chem.

>  <bao_endpoint>  (272) 
BAO_0000190

>  <potential_duplicate>  (272) 
False

>  <uo_units>  (272) 
UO_0000065

>  <canonical_smiles>  (272) 
Cc1ccc(cc1C#Cc2cnc3c(N)cccn23)C(=O)Nc4cc(cc(c4)C(F)(F)F)n5ccnc5

>  <parent_molecule_chembl_id>  (272) 
CHEMBL1172397

>  <assay_type>  (272) 
B

>  <src_id>  (272) 
1

>  <ligand_efficiency>  (272) 
{u'le': u'0.32', u'bei': u'17.26', u'sei': u'9.57', u'lle': u'4.4'}

>  <standard_flag>  (272) 
True

>  <molecule_chembl_id>  (272) 
CHEMBL1172397

>  <target_organism>  (272) 
Homo sapiens

>  <standard_units>  (272) 
nM

>  <record_id>  (272) 
923713

>  <document_chembl_id>  (272) 
CHEMBL1177713

>  <bao_format>  (272) 
BAO_0000357

>  <data_validity_description>  (272) 
None

>  <activity_id>  (272) 
3360174

>  <standard_type>  (272) 
IC50

>  <target_chembl_id>  (272) 
CHEMBL1862

>  <data_validity_comment>  (272) 
None

>  <published_value>  (272) 
2.3

>  <document_year>  (272) 
2010

>  <target_pref_name>  (272) 
Tyrosine-protein kinase ABL

>  <assay_chembl_id>  (272) 
CHEMBL1176860

>  <standard_relation>  (272) 
=

>  <assay_description>  (272) 
Inhibition of wild type human ABL after 1 hr by TR-FRET assay

>  <published_relation>  (272) 
=

>  <standard_value>  (272) 
2.3

>  <qudt_units>  (272) 
http://www.openphacts.org/units/Nanomolar

>  <target_tax_id>  (272) 
9606

>  <bao_label>  (272) 
single protein format

>  <published_units>  (272) 
nM

>  <pchembl_value>  (272) 
8.64

>  <published_type>  (272) 
IC50

>  <activity_comment>  (272) 
None

$$$$

     RDKit          

 40 44  0  0  0  0  0  0  0  0999 V2000
    0.0000    0.0000    0.0000 C   0  0  0  0  0  0  0  0  0  0  0  0
    0.0000    0.0000    0.0000 C   0  0  0  0  0  0  0  0  0  0  0  0
    0.0000    0.0000    0.0000 O   0  0  0  0  0  0  0  0  0  0  0  0
    0.0000    0.0000    0.0000 N   0  0  0  0  0  0  0  0  0  0  0  0
    0.0000    0.0000    0.0000 C   0  0  0  0  0  0  0  0  0  0  0  0
    0.0000    0.0000    0.0000 C   0  0  0  0  0  0  0  0  0  0  0  0
    0.0000    0.0000    0.0000 C   0  0  0  0  0  0  0  0  0  0  0  0
    0.0000    0.0000    0.0000 C   0  0  0  0  0  0  0  0  0  0  0  0
    0.0000    0.0000    0.0000 N   0  0  0  0  0  0  0  0  0  0  0  0
    0.0000    0.0000    0.0000 C   0  0  0  0  0  0  0  0  0  0  0  0
    0.0000    0.0000    0.0000 C   0  0  0  0  0  0  0  0  0  0  0  0
    0.0000    0.0000    0.0000 N   0  0  0  0  0  0  0  0  0  0  0  0
    0.0000    0.0000    0.0000 C   0  0  0  0  0  0  0  0  0  0  0  0
    0.0000    0.0000    0.0000 C   0  0  0  0  0  0  0  0  0  0  0  0
    0.0000    0.0000    0.0000 C   0  0  0  0  0  0  0  0  0  0  0  0
    0.0000    0.0000    0.0000 C   0  0  0  0  0  0  0  0  0  0  0  0
    0.0000    0.0000    0.0000 C   0  0  0  0  0  0  0  0  0  0  0  0
    0.0000    0.0000    0.0000 C   0  0  0  0  0  0  0  0  0  0  0  0
    0.0000    0.0000    0.0000 C   0  0  0  0  0  0  0  0  0  0  0  0
    0.0000    0.0000    0.0000 C   0  0  0  0  0  0  0  0  0  0  0  0
    0.0000    0.0000    0.0000 C   0  0  0  0  0  0  0  0  0  0  0  0
    0.0000    0.0000    0.0000 C   0  0  0  0  0  0  0  0  0  0  0  0
    0.0000    0.0000    0.0000 C   0  0  0  0  0  0  0  0  0  0  0  0
    0.0000    0.0000    0.0000 O   0  0  0  0  0  0  0  0  0  0  0  0
    0.0000    0.0000    0.0000 N   0  0  0  0  0  0  0  0  0  0  0  0
    0.0000    0.0000    0.0000 C   0  0  0  0  0  0  0  0  0  0  0  0
    0.0000    0.0000    0.0000 C   0  0  0  0  0  0  0  0  0  0  0  0
    0.0000    0.0000    0.0000 C   0  0  0  0  0  0  0  0  0  0  0  0
    0.0000    0.0000    0.0000 C   0  0  0  0  0  0  0  0  0  0  0  0
    0.0000    0.0000    0.0000 C   0  0  0  0  0  0  0  0  0  0  0  0
    0.0000    0.0000    0.0000 C   0  0  0  0  0  0  0  0  0  0  0  0
    0.0000    0.0000    0.0000 C   0  0  0  0  0  0  0  0  0  0  0  0
    0.0000    0.0000    0.0000 F   0  0  0  0  0  0  0  0  0  0  0  0
    0.0000    0.0000    0.0000 F   0  0  0  0  0  0  0  0  0  0  0  0
    0.0000    0.0000    0.0000 F   0  0  0  0  0  0  0  0  0  0  0  0
    0.0000    0.0000    0.0000 N   0  0  0  0  0  0  0  0  0  0  0  0
    0.0000    0.0000    0.0000 C   0  0  0  0  0  0  0  0  0  0  0  0
    0.0000    0.0000    0.0000 C   0  0  0  0  0  0  0  0  0  0  0  0
    0.0000    0.0000    0.0000 N   0  0  0  0  0  0  0  0  0  0  0  0
    0.0000    0.0000    0.0000 C   0  0  0  0  0  0  0  0  0  0  0  0
  1  2  1  0
  2  3  2  0
  2  4  1  0
  4  5  1  0
  5  6  2  0
  6  7  1  0
  7  8  2  0
  8  9  1  0
  9 10  1  0
 10 11  2  0
 11 12  1  0
 12 13  2  0
 10 14  1  0
 14 15  3  0
 15 16  1  0
 16 17  2  0
 17 18  1  0
 18 19  2  0
 19 20  1  0
 20 21  2  0
 21 22  1  0
 18 23  1  0
 23 24  2  0
 23 25  1  0
 25 26  1  0
 26 27  2  0
 27 28  1  0
 28 29  2  0
 29 30  1  0
 30 31  2  0
 30 32  1  0
 32 33  1  0
 32 34  1  0
 32 35  1  0
 28 36  1  0
 36 37  1  0
 37 38  2  0
 38 39  1  0
 39 40  2  0
 13  5  1  0
 13  9  1  0
 21 16  1  0
 31 26  1  0
 40 36  1  0
M  END
>  <pIC50>  (273) 
8.19

>  <ChEMBL_ID>  (273) 
CHEMBL1172585

>  <document_journal>  (273) 
J. Med. Chem.

>  <bao_endpoint>  (273) 
BAO_0000190

>  <potential_duplicate>  (273) 
False

>  <uo_units>  (273) 
UO_0000065

>  <canonical_smiles>  (273) 
CC(=O)Nc1cccn2c(cnc12)C#Cc3cc(ccc3C)C(=O)Nc4cc(cc(c4)C(F)(F)F)n5ccnc5

>  <parent_molecule_chembl_id>  (273) 
CHEMBL1172585

>  <assay_type>  (273) 
B

>  <src_id>  (273) 
1

>  <ligand_efficiency>  (273) 
{u'le': u'0.28', u'bei': u'15.1', u'sei': u'8.78', u'lle': u'4.08'}

>  <standard_flag>  (273) 
True

>  <molecule_chembl_id>  (273) 
CHEMBL1172585

>  <target_organism>  (273) 
Homo sapiens

>  <standard_units>  (273) 
nM

>  <record_id>  (273) 
923714

>  <document_chembl_id>  (273) 
CHEMBL1177713

>  <bao_format>  (273) 
BAO_0000357

>  <data_validity_description>  (273) 
None

>  <activity_id>  (273) 
3360175

>  <standard_type>  (273) 
IC50

>  <target_chembl_id>  (273) 
CHEMBL1862

>  <data_validity_comment>  (273) 
None

>  <published_value>  (273) 
6.4

>  <document_year>  (273) 
2010

>  <target_pref_name>  (273) 
Tyrosine-protein kinase ABL

>  <assay_chembl_id>  (273) 
CHEMBL1176860

>  <standard_relation>  (273) 
=

>  <assay_description>  (273) 
Inhibition of wild type human ABL after 1 hr by TR-FRET assay

>  <published_relation>  (273) 
=

>  <standard_value>  (273) 
6.4

>  <qudt_units>  (273) 
http://www.openphacts.org/units/Nanomolar

>  <target_tax_id>  (273) 
9606

>  <bao_label>  (273) 
single protein format

>  <published_units>  (273) 
nM

>  <pchembl_value>  (273) 
8.19

>  <published_type>  (273) 
IC50

>  <activity_comment>  (273) 
None

$$$$

     RDKit          

 36 40  0  0  0  0  0  0  0  0999 V2000
    0.0000    0.0000    0.0000 C   0  0  0  0  0  0  0  0  0  0  0  0
    0.0000    0.0000    0.0000 C   0  0  0  0  0  0  0  0  0  0  0  0
    0.0000    0.0000    0.0000 C   0  0  0  0  0  0  0  0  0  0  0  0
    0.0000    0.0000    0.0000 C   0  0  0  0  0  0  0  0  0  0  0  0
    0.0000    0.0000    0.0000 C   0  0  0  0  0  0  0  0  0  0  0  0
    0.0000    0.0000    0.0000 C   0  0  0  0  0  0  0  0  0  0  0  0
    0.0000    0.0000    0.0000 C   0  0  0  0  0  0  0  0  0  0  0  0
    0.0000    0.0000    0.0000 C   0  0  0  0  0  0  0  0  0  0  0  0
    0.0000    0.0000    0.0000 C   0  0  0  0  0  0  0  0  0  0  0  0
    0.0000    0.0000    0.0000 C   0  0  0  0  0  0  0  0  0  0  0  0
    0.0000    0.0000    0.0000 C   0  0  0  0  0  0  0  0  0  0  0  0
    0.0000    0.0000    0.0000 N   0  0  0  0  0  0  0  0  0  0  0  0
    0.0000    0.0000    0.0000 C   0  0  0  0  0  0  0  0  0  0  0  0
    0.0000    0.0000    0.0000 C   0  0  0  0  0  0  0  0  0  0  0  0
    0.0000    0.0000    0.0000 C   0  0  0  0  0  0  0  0  0  0  0  0
    0.0000    0.0000    0.0000 C   0  0  0  0  0  0  0  0  0  0  0  0
    0.0000    0.0000    0.0000 C   0  0  0  0  0  0  0  0  0  0  0  0
    0.0000    0.0000    0.0000 N   0  0  0  0  0  0  0  0  0  0  0  0
    0.0000    0.0000    0.0000 C   0  0  0  0  0  0  0  0  0  0  0  0
    0.0000    0.0000    0.0000 O   0  0  0  0  0  0  0  0  0  0  0  0
    0.0000    0.0000    0.0000 N   0  0  0  0  0  0  0  0  0  0  0  0
    0.0000    0.0000    0.0000 C   0  0  0  0  0  0  0  0  0  0  0  0
    0.0000    0.0000    0.0000 C   0  0  0  0  0  0  0  0  0  0  0  0
    0.0000    0.0000    0.0000 C   0  0  0  0  0  0  0  0  0  0  0  0
    0.0000    0.0000    0.0000 C   0  0  0  0  0  0  0  0  0  0  0  0
    0.0000    0.0000    0.0000 C   0  0  0  0  0  0  0  0  0  0  0  0
    0.0000    0.0000    0.0000 C   0  0  0  0  0  0  0  0  0  0  0  0
    0.0000    0.0000    0.0000 C   0  0  0  0  0  0  0  0  0  0  0  0
    0.0000    0.0000    0.0000 F   0  0  0  0  0  0  0  0  0  0  0  0
    0.0000    0.0000    0.0000 F   0  0  0  0  0  0  0  0  0  0  0  0
    0.0000    0.0000    0.0000 F   0  0  0  0  0  0  0  0  0  0  0  0
    0.0000    0.0000    0.0000 N   0  0  0  0  0  0  0  0  0  0  0  0
    0.0000    0.0000    0.0000 C   0  0  0  0  0  0  0  0  0  0  0  0
    0.0000    0.0000    0.0000 C   0  0  0  0  0  0  0  0  0  0  0  0
    0.0000    0.0000    0.0000 N   0  0  0  0  0  0  0  0  0  0  0  0
    0.0000    0.0000    0.0000 C   0  0  0  0  0  0  0  0  0  0  0  0
  1  2  1  0
  2  3  2  0
  3  4  1  0
  4  5  2  0
  5  6  1  0
  6  7  2  0
  7  8  1  0
  8  9  3  0
  9 10  1  0
 10 11  2  0
 11 12  1  0
 12 13  2  0
 13 14  1  0
 14 15  2  0
 15 16  1  0
 16 17  2  0
 17 18  1  0
  5 19  1  0
 19 20  2  0
 19 21  1  0
 21 22  1  0
 22 23  2  0
 23 24  1  0
 24 25  2  0
 25 26  1  0
 26 27  2  0
 26 28  1  0
 28 29  1  0
 28 30  1  0
 28 31  1  0
 24 32  1  0
 32 33  1  0
 33 34  2  0
 34 35  1  0
 35 36  2  0
  7  2  1  0
 18 10  1  0
 18 13  1  0
 27 22  1  0
 36 32  1  0
M  END
>  <pIC50>  (274) 
7.59

>  <ChEMBL_ID>  (274) 
CHEMBL1172586

>  <document_journal>  (274) 
J. Med. Chem.

>  <bao_endpoint>  (274) 
BAO_0000190

>  <potential_duplicate>  (274) 
False

>  <uo_units>  (274) 
UO_0000065

>  <canonical_smiles>  (274) 
Cc1ccc(cc1C#Cc2cnc3ccccn23)C(=O)Nc4cc(cc(c4)C(F)(F)F)n5ccnc5

>  <parent_molecule_chembl_id>  (274) 
CHEMBL1172586

>  <assay_type>  (274) 
B

>  <src_id>  (274) 
1

>  <ligand_efficiency>  (274) 
{u'le': u'0.29', u'bei': u'15.62', u'sei': u'11.81', u'lle': u'2.6'}

>  <standard_flag>  (274) 
True

>  <molecule_chembl_id>  (274) 
CHEMBL1172586

>  <target_organism>  (274) 
Homo sapiens

>  <standard_units>  (274) 
nM

>  <record_id>  (274) 
923715

>  <document_chembl_id>  (274) 
CHEMBL1177713

>  <bao_format>  (274) 
BAO_0000357

>  <data_validity_description>  (274) 
None

>  <activity_id>  (274) 
3360176

>  <standard_type>  (274) 
IC50

>  <target_chembl_id>  (274) 
CHEMBL1862

>  <data_validity_comment>  (274) 
None

>  <published_value>  (274) 
26

>  <document_year>  (274) 
2010

>  <target_pref_name>  (274) 
Tyrosine-protein kinase ABL

>  <assay_chembl_id>  (274) 
CHEMBL1176860

>  <standard_relation>  (274) 
=

>  <assay_description>  (274) 
Inhibition of wild type human ABL after 1 hr by TR-FRET assay

>  <published_relation>  (274) 
=

>  <standard_value>  (274) 
26

>  <qudt_units>  (274) 
http://www.openphacts.org/units/Nanomolar

>  <target_tax_id>  (274) 
9606

>  <bao_label>  (274) 
single protein format

>  <published_units>  (274) 
nM

>  <pchembl_value>  (274) 
7.59

>  <published_type>  (274) 
IC50

>  <activity_comment>  (274) 
None

$$$$

     RDKit          

 40 44  0  0  0  0  0  0  0  0999 V2000
    0.0000    0.0000    0.0000 C   0  0  0  0  0  0  0  0  0  0  0  0
    0.0000    0.0000    0.0000 N   0  0  0  0  0  0  0  0  0  0  0  0
    0.0000    0.0000    0.0000 C   0  0  0  0  0  0  0  0  0  0  0  0
    0.0000    0.0000    0.0000 C   0  0  0  0  0  0  0  0  0  0  0  0
    0.0000    0.0000    0.0000 C   0  0  0  0  0  0  0  0  0  0  0  0
    0.0000    0.0000    0.0000 N   0  0  0  0  0  0  0  0  0  0  0  0
    0.0000    0.0000    0.0000 C   0  0  0  0  0  0  0  0  0  0  0  0
    0.0000    0.0000    0.0000 C   0  0  0  0  0  0  0  0  0  0  0  0
    0.0000    0.0000    0.0000 N   0  0  0  0  0  0  0  0  0  0  0  0
    0.0000    0.0000    0.0000 C   0  0  0  0  0  0  0  0  0  0  0  0
    0.0000    0.0000    0.0000 C   0  0  0  0  0  0  0  0  0  0  0  0
    0.0000    0.0000    0.0000 C   0  0  0  0  0  0  0  0  0  0  0  0
    0.0000    0.0000    0.0000 N   0  0  0  0  0  0  0  0  0  0  0  0
    0.0000    0.0000    0.0000 C   0  0  0  0  0  0  0  0  0  0  0  0
    0.0000    0.0000    0.0000 O   0  0  0  0  0  0  0  0  0  0  0  0
    0.0000    0.0000    0.0000 C   0  0  0  0  0  0  0  0  0  0  0  0
    0.0000    0.0000    0.0000 C   0  0  0  0  0  0  0  0  0  0  0  0
    0.0000    0.0000    0.0000 C   0  0  0  0  0  0  0  0  0  0  0  0
    0.0000    0.0000    0.0000 C   0  0  0  0  0  0  0  0  0  0  0  0
    0.0000    0.0000    0.0000 C   0  0  0  0  0  0  0  0  0  0  0  0
    0.0000    0.0000    0.0000 C   0  0  0  0  0  0  0  0  0  0  0  0
    0.0000    0.0000    0.0000 C   0  0  0  0  0  0  0  0  0  0  0  0
    0.0000    0.0000    0.0000 C   0  0  0  0  0  0  0  0  0  0  0  0
    0.0000    0.0000    0.0000 C   0  0  0  0  0  0  0  0  0  0  0  0
    0.0000    0.0000    0.0000 C   0  0  0  0  0  0  0  0  0  0  0  0
    0.0000    0.0000    0.0000 C   0  0  0  0  0  0  0  0  0  0  0  0
    0.0000    0.0000    0.0000 N   0  0  0  0  0  0  0  0  0  0  0  0
    0.0000    0.0000    0.0000 C   0  0  0  0  0  0  0  0  0  0  0  0
    0.0000    0.0000    0.0000 C   0  0  0  0  0  0  0  0  0  0  0  0
    0.0000    0.0000    0.0000 C   0  0  0  0  0  0  0  0  0  0  0  0
    0.0000    0.0000    0.0000 C   0  0  0  0  0  0  0  0  0  0  0  0
    0.0000    0.0000    0.0000 C   0  0  0  0  0  0  0  0  0  0  0  0
    0.0000    0.0000    0.0000 N   0  0  0  0  0  0  0  0  0  0  0  0
    0.0000    0.0000    0.0000 C   0  0  0  0  0  0  0  0  0  0  0  0
    0.0000    0.0000    0.0000 C   0  0  0  0  0  0  0  0  0  0  0  0
    0.0000    0.0000    0.0000 C   0  0  0  0  0  0  0  0  0  0  0  0
    0.0000    0.0000    0.0000 C   0  0  0  0  0  0  0  0  0  0  0  0
    0.0000    0.0000    0.0000 F   0  0  0  0  0  0  0  0  0  0  0  0
    0.0000    0.0000    0.0000 F   0  0  0  0  0  0  0  0  0  0  0  0
    0.0000    0.0000    0.0000 F   0  0  0  0  0  0  0  0  0  0  0  0
  1  2  1  0
  2  3  1  0
  2  4  1  0
  4  5  1  0
  5  6  2  0
  6  7  1  0
  7  8  2  0
  8  9  1  0
  9 10  1  0
 10 11  2  0
 11 12  1  0
 12 13  1  0
 13 14  1  0
 14 15  2  0
 14 16  1  0
 16 17  2  0
 17 18  1  0
 18 19  2  0
 19 20  1  0
 19 21  1  0
 21 22  2  0
 21 23  1  0
 23 24  3  0
 24 25  1  0
 25 26  2  0
 26 27  1  0
 27 28  2  0
 28 29  1  0
 29 30  2  0
 30 31  1  0
 31 32  2  0
 32 33  1  0
 12 34  2  0
 34 35  1  0
 35 36  2  0
 35 37  1  0
 37 38  1  0
 37 39  1  0
 37 40  1  0
  9  5  1  0
 36 10  1  0
 22 16  1  0
 33 25  1  0
 33 28  1  0
M  END
>  <pIC50>  (275) 
7.35

>  <ChEMBL_ID>  (275) 
CHEMBL1171085

>  <document_journal>  (275) 
J. Med. Chem.

>  <bao_endpoint>  (275) 
BAO_0000190

>  <potential_duplicate>  (275) 
False

>  <uo_units>  (275) 
UO_0000065

>  <canonical_smiles>  (275) 
CN(C)Cc1nccn1c2cc(NC(=O)c3ccc(C)c(c3)C#Cc4cnc5ccccn45)cc(c2)C(F)(F)F

>  <parent_molecule_chembl_id>  (275) 
CHEMBL1171085

>  <assay_type>  (275) 
B

>  <src_id>  (275) 
1

>  <ligand_efficiency>  (275) 
{u'le': u'0.25', u'bei': u'13.54', u'sei': u'10.89', u'lle': u'2.09'}

>  <standard_flag>  (275) 
True

>  <molecule_chembl_id>  (275) 
CHEMBL1171085

>  <target_organism>  (275) 
Homo sapiens

>  <standard_units>  (275) 
nM

>  <record_id>  (275) 
923787

>  <document_chembl_id>  (275) 
CHEMBL1177713

>  <bao_format>  (275) 
BAO_0000357

>  <data_validity_description>  (275) 
None

>  <activity_id>  (275) 
3360177

>  <standard_type>  (275) 
IC50

>  <target_chembl_id>  (275) 
CHEMBL1862

>  <data_validity_comment>  (275) 
None

>  <published_value>  (275) 
45

>  <document_year>  (275) 
2010

>  <target_pref_name>  (275) 
Tyrosine-protein kinase ABL

>  <assay_chembl_id>  (275) 
CHEMBL1176860

>  <standard_relation>  (275) 
=

>  <assay_description>  (275) 
Inhibition of wild type human ABL after 1 hr by TR-FRET assay

>  <published_relation>  (275) 
=

>  <standard_value>  (275) 
45

>  <qudt_units>  (275) 
http://www.openphacts.org/units/Nanomolar

>  <target_tax_id>  (275) 
9606

>  <bao_label>  (275) 
single protein format

>  <published_units>  (275) 
nM

>  <pchembl_value>  (275) 
7.35

>  <published_type>  (275) 
IC50

>  <activity_comment>  (275) 
None

$$$$

     RDKit          

 42 47  0  0  0  0  0  0  0  0999 V2000
    0.0000    0.0000    0.0000 C   0  0  0  0  0  0  0  0  0  0  0  0
    0.0000    0.0000    0.0000 C   0  0  0  0  0  0  0  0  0  0  0  0
    0.0000    0.0000    0.0000 C   0  0  0  0  0  0  0  0  0  0  0  0
    0.0000    0.0000    0.0000 C   0  0  0  0  0  0  0  0  0  0  0  0
    0.0000    0.0000    0.0000 C   0  0  0  0  0  0  0  0  0  0  0  0
    0.0000    0.0000    0.0000 C   0  0  0  0  0  0  0  0  0  0  0  0
    0.0000    0.0000    0.0000 C   0  0  0  0  0  0  0  0  0  0  0  0
    0.0000    0.0000    0.0000 C   0  0  0  0  0  0  0  0  0  0  0  0
    0.0000    0.0000    0.0000 C   0  0  0  0  0  0  0  0  0  0  0  0
    0.0000    0.0000    0.0000 C   0  0  0  0  0  0  0  0  0  0  0  0
    0.0000    0.0000    0.0000 C   0  0  0  0  0  0  0  0  0  0  0  0
    0.0000    0.0000    0.0000 N   0  0  0  0  0  0  0  0  0  0  0  0
    0.0000    0.0000    0.0000 C   0  0  0  0  0  0  0  0  0  0  0  0
    0.0000    0.0000    0.0000 C   0  0  0  0  0  0  0  0  0  0  0  0
    0.0000    0.0000    0.0000 C   0  0  0  0  0  0  0  0  0  0  0  0
    0.0000    0.0000    0.0000 C   0  0  0  0  0  0  0  0  0  0  0  0
    0.0000    0.0000    0.0000 C   0  0  0  0  0  0  0  0  0  0  0  0
    0.0000    0.0000    0.0000 N   0  0  0  0  0  0  0  0  0  0  0  0
    0.0000    0.0000    0.0000 C   0  0  0  0  0  0  0  0  0  0  0  0
    0.0000    0.0000    0.0000 O   0  0  0  0  0  0  0  0  0  0  0  0
    0.0000    0.0000    0.0000 N   0  0  0  0  0  0  0  0  0  0  0  0
    0.0000    0.0000    0.0000 C   0  0  0  0  0  0  0  0  0  0  0  0
    0.0000    0.0000    0.0000 C   0  0  0  0  0  0  0  0  0  0  0  0
    0.0000    0.0000    0.0000 C   0  0  0  0  0  0  0  0  0  0  0  0
    0.0000    0.0000    0.0000 C   0  0  0  0  0  0  0  0  0  0  0  0
    0.0000    0.0000    0.0000 C   0  0  0  0  0  0  0  0  0  0  0  0
    0.0000    0.0000    0.0000 C   0  0  0  0  0  0  0  0  0  0  0  0
    0.0000    0.0000    0.0000 C   0  0  0  0  0  0  0  0  0  0  0  0
    0.0000    0.0000    0.0000 F   0  0  0  0  0  0  0  0  0  0  0  0
    0.0000    0.0000    0.0000 F   0  0  0  0  0  0  0  0  0  0  0  0
    0.0000    0.0000    0.0000 F   0  0  0  0  0  0  0  0  0  0  0  0
    0.0000    0.0000    0.0000 N   0  0  0  0  0  0  0  0  0  0  0  0
    0.0000    0.0000    0.0000 C   0  0  0  0  0  0  0  0  0  0  0  0
    0.0000    0.0000    0.0000 N   0  0  0  0  0  0  0  0  0  0  0  0
    0.0000    0.0000    0.0000 C   0  0  0  0  0  0  0  0  0  0  0  0
    0.0000    0.0000    0.0000 C   0  0  0  0  0  0  0  0  0  0  0  0
    0.0000    0.0000    0.0000 N   0  0  0  0  0  0  0  0  0  0  0  0
    0.0000    0.0000    0.0000 C   0  0  0  0  0  0  0  0  0  0  0  0
    0.0000    0.0000    0.0000 C   0  0  0  0  0  0  0  0  0  0  0  0
    0.0000    0.0000    0.0000 C   0  0  0  0  0  0  0  0  0  0  0  0
    0.0000    0.0000    0.0000 C   0  0  0  0  0  0  0  0  0  0  0  0
    0.0000    0.0000    0.0000 C   0  0  0  0  0  0  0  0  0  0  0  0
  1  2  1  0
  2  3  2  0
  3  4  1  0
  4  5  2  0
  5  6  1  0
  6  7  2  0
  7  8  1  0
  8  9  3  0
  9 10  1  0
 10 11  2  0
 11 12  1  0
 12 13  2  0
 13 14  1  0
 14 15  2  0
 15 16  1  0
 16 17  2  0
 17 18  1  0
  5 19  1  0
 19 20  2  0
 19 21  1  0
 21 22  1  0
 22 23  2  0
 23 24  1  0
 24 25  2  0
 25 26  1  0
 26 27  2  0
 26 28  1  0
 28 29  1  0
 28 30  1  0
 28 31  1  0
 24 32  1  0
 32 33  1  0
 33 34  2  0
 34 35  1  0
 35 36  1  0
 36 37  1  0
 37 38  1  0
 38 39  1  0
 39 40  1  0
 40 41  1  0
 35 42  2  0
  7  2  1  0
 18 10  1  0
 18 13  1  0
 27 22  1  0
 42 32  1  0
 41 37  1  0
M  END
>  <pIC50>  (276) 
7.59

>  <ChEMBL_ID>  (276) 
CHEMBL1171038

>  <document_journal>  (276) 
J. Med. Chem.

>  <bao_endpoint>  (276) 
BAO_0000190

>  <potential_duplicate>  (276) 
False

>  <uo_units>  (276) 
UO_0000065

>  <canonical_smiles>  (276) 
Cc1ccc(cc1C#Cc2cnc3ccccn23)C(=O)Nc4cc(cc(c4)C(F)(F)F)n5cnc(CN6CCCC6)c5

>  <parent_molecule_chembl_id>  (276) 
CHEMBL1171038

>  <assay_type>  (276) 
B

>  <src_id>  (276) 
1

>  <ligand_efficiency>  (276) 
{u'le': u'0.25', u'bei': u'13.34', u'sei': u'11.25', u'lle': u'1.85'}

>  <standard_flag>  (276) 
True

>  <molecule_chembl_id>  (276) 
CHEMBL1171038

>  <target_organism>  (276) 
Homo sapiens

>  <standard_units>  (276) 
nM

>  <record_id>  (276) 
923788

>  <document_chembl_id>  (276) 
CHEMBL1177713

>  <bao_format>  (276) 
BAO_0000357

>  <data_validity_description>  (276) 
None

>  <activity_id>  (276) 
3360178

>  <standard_type>  (276) 
IC50

>  <target_chembl_id>  (276) 
CHEMBL1862

>  <data_validity_comment>  (276) 
None

>  <published_value>  (276) 
26

>  <document_year>  (276) 
2010

>  <target_pref_name>  (276) 
Tyrosine-protein kinase ABL

>  <assay_chembl_id>  (276) 
CHEMBL1176860

>  <standard_relation>  (276) 
=

>  <assay_description>  (276) 
Inhibition of wild type human ABL after 1 hr by TR-FRET assay

>  <published_relation>  (276) 
=

>  <standard_value>  (276) 
26

>  <qudt_units>  (276) 
http://www.openphacts.org/units/Nanomolar

>  <target_tax_id>  (276) 
9606

>  <bao_label>  (276) 
single protein format

>  <published_units>  (276) 
nM

>  <pchembl_value>  (276) 
7.59

>  <published_type>  (276) 
IC50

>  <activity_comment>  (276) 
None

$$$$

     RDKit          

 39 43  0  0  0  0  0  0  0  0999 V2000
    0.0000    0.0000    0.0000 C   0  0  0  0  0  0  0  0  0  0  0  0
    0.0000    0.0000    0.0000 N   0  0  0  0  0  0  0  0  0  0  0  0
    0.0000    0.0000    0.0000 C   0  0  0  0  0  0  0  0  0  0  0  0
    0.0000    0.0000    0.0000 C   0  0  0  0  0  0  0  0  0  0  0  0
    0.0000    0.0000    0.0000 N   0  0  0  0  0  0  0  0  0  0  0  0
    0.0000    0.0000    0.0000 C   0  0  0  0  0  0  0  0  0  0  0  0
    0.0000    0.0000    0.0000 C   0  0  0  0  0  0  0  0  0  0  0  0
    0.0000    0.0000    0.0000 C   0  0  0  0  0  0  0  0  0  0  0  0
    0.0000    0.0000    0.0000 C   0  0  0  0  0  0  0  0  0  0  0  0
    0.0000    0.0000    0.0000 C   0  0  0  0  0  0  0  0  0  0  0  0
    0.0000    0.0000    0.0000 N   0  0  0  0  0  0  0  0  0  0  0  0
    0.0000    0.0000    0.0000 C   0  0  0  0  0  0  0  0  0  0  0  0
    0.0000    0.0000    0.0000 O   0  0  0  0  0  0  0  0  0  0  0  0
    0.0000    0.0000    0.0000 C   0  0  0  0  0  0  0  0  0  0  0  0
    0.0000    0.0000    0.0000 C   0  0  0  0  0  0  0  0  0  0  0  0
    0.0000    0.0000    0.0000 C   0  0  0  0  0  0  0  0  0  0  0  0
    0.0000    0.0000    0.0000 C   0  0  0  0  0  0  0  0  0  0  0  0
    0.0000    0.0000    0.0000 C   0  0  0  0  0  0  0  0  0  0  0  0
    0.0000    0.0000    0.0000 C   0  0  0  0  0  0  0  0  0  0  0  0
    0.0000    0.0000    0.0000 C   0  0  0  0  0  0  0  0  0  0  0  0
    0.0000    0.0000    0.0000 C   0  0  0  0  0  0  0  0  0  0  0  0
    0.0000    0.0000    0.0000 C   0  0  0  0  0  0  0  0  0  0  0  0
    0.0000    0.0000    0.0000 C   0  0  0  0  0  0  0  0  0  0  0  0
    0.0000    0.0000    0.0000 C   0  0  0  0  0  0  0  0  0  0  0  0
    0.0000    0.0000    0.0000 N   0  0  0  0  0  0  0  0  0  0  0  0
    0.0000    0.0000    0.0000 C   0  0  0  0  0  0  0  0  0  0  0  0
    0.0000    0.0000    0.0000 C   0  0  0  0  0  0  0  0  0  0  0  0
    0.0000    0.0000    0.0000 C   0  0  0  0  0  0  0  0  0  0  0  0
    0.0000    0.0000    0.0000 C   0  0  0  0  0  0  0  0  0  0  0  0
    0.0000    0.0000    0.0000 C   0  0  0  0  0  0  0  0  0  0  0  0
    0.0000    0.0000    0.0000 N   0  0  0  0  0  0  0  0  0  0  0  0
    0.0000    0.0000    0.0000 C   0  0  0  0  0  0  0  0  0  0  0  0
    0.0000    0.0000    0.0000 C   0  0  0  0  0  0  0  0  0  0  0  0
    0.0000    0.0000    0.0000 C   0  0  0  0  0  0  0  0  0  0  0  0
    0.0000    0.0000    0.0000 F   0  0  0  0  0  0  0  0  0  0  0  0
    0.0000    0.0000    0.0000 F   0  0  0  0  0  0  0  0  0  0  0  0
    0.0000    0.0000    0.0000 F   0  0  0  0  0  0  0  0  0  0  0  0
    0.0000    0.0000    0.0000 C   0  0  0  0  0  0  0  0  0  0  0  0
    0.0000    0.0000    0.0000 C   0  0  0  0  0  0  0  0  0  0  0  0
  1  2  1  0
  2  3  1  0
  3  4  1  0
  4  5  1  0
  5  6  1  0
  6  7  1  0
  7  8  2  0
  8  9  1  0
  9 10  2  0
 10 11  1  0
 11 12  1  0
 12 13  2  0
 12 14  1  0
 14 15  2  0
 15 16  1  0
 16 17  2  0
 17 18  1  0
 17 19  1  0
 19 20  2  0
 19 21  1  0
 21 22  3  0
 22 23  1  0
 23 24  2  0
 24 25  1  0
 25 26  2  0
 26 27  1  0
 27 28  2  0
 28 29  1  0
 29 30  2  0
 30 31  1  0
 10 32  1  0
 32 33  2  0
 33 34  1  0
 34 35  1  0
 34 36  1  0
 34 37  1  0
  5 38  1  0
 38 39  1  0
 39  2  1  0
 33  7  1  0
 20 14  1  0
 31 23  1  0
 31 26  1  0
M  END
>  <pIC50>  (277) 
8.56666666667

>  <ChEMBL_ID>  (277) 
CHEMBL1171086

>  <document_journal>  (277) 
J. Med. Chem.

>  <bao_endpoint>  (277) 
BAO_0000190

>  <potential_duplicate>  (277) 
False

>  <uo_units>  (277) 
UO_0000065

>  <canonical_smiles>  (277) 
CN1CCN(Cc2ccc(NC(=O)c3ccc(C)c(c3)C#Cc4cnc5ccccn45)cc2C(F)(F)F)CC1

>  <parent_molecule_chembl_id>  (277) 
CHEMBL1171086

>  <assay_type>  (277) 
B

>  <src_id>  (277) 
1

>  <ligand_efficiency>  (277) 
{u'le': u'0.28', u'bei': u'15.14', u'sei': u'15.22', u'lle': u'2.7'}

>  <standard_flag>  (277) 
True

>  <molecule_chembl_id>  (277) 
CHEMBL1171086

>  <target_organism>  (277) 
Homo sapiens

>  <standard_units>  (277) 
nM

>  <record_id>  (277) 
923789

>  <document_chembl_id>  (277) 
CHEMBL1177713

>  <bao_format>  (277) 
BAO_0000357

>  <data_validity_description>  (277) 
None

>  <activity_id>  (277) 
3360179

>  <standard_type>  (277) 
IC50

>  <target_chembl_id>  (277) 
CHEMBL1862

>  <data_validity_comment>  (277) 
None

>  <published_value>  (277) 
9

>  <document_year>  (277) 
2010

>  <target_pref_name>  (277) 
Tyrosine-protein kinase ABL

>  <assay_chembl_id>  (277) 
CHEMBL1176860

>  <standard_relation>  (277) 
=

>  <assay_description>  (277) 
Inhibition of wild type human ABL after 1 hr by TR-FRET assay

>  <published_relation>  (277) 
=

>  <standard_value>  (277) 
9

>  <qudt_units>  (277) 
http://www.openphacts.org/units/Nanomolar

>  <target_tax_id>  (277) 
9606

>  <bao_label>  (277) 
single protein format

>  <published_units>  (277) 
nM

>  <pchembl_value>  (277) 
8.05

>  <published_type>  (277) 
IC50

>  <activity_comment>  (277) 
None

$$$$

     RDKit          

 39 43  0  0  0  0  0  0  0  0999 V2000
    0.0000    0.0000    0.0000 C   0  0  0  0  0  0  0  0  0  0  0  0
    0.0000    0.0000    0.0000 N   0  0  0  0  0  0  0  0  0  0  0  0
    0.0000    0.0000    0.0000 C   0  0  0  0  0  0  0  0  0  0  0  0
    0.0000    0.0000    0.0000 C   0  0  0  0  0  0  0  0  0  0  0  0
    0.0000    0.0000    0.0000 N   0  0  0  0  0  0  0  0  0  0  0  0
    0.0000    0.0000    0.0000 C   0  0  0  0  0  0  0  0  0  0  0  0
    0.0000    0.0000    0.0000 C   0  0  0  0  0  0  0  0  0  0  0  0
    0.0000    0.0000    0.0000 C   0  0  0  0  0  0  0  0  0  0  0  0
    0.0000    0.0000    0.0000 C   0  0  0  0  0  0  0  0  0  0  0  0
    0.0000    0.0000    0.0000 C   0  0  0  0  0  0  0  0  0  0  0  0
    0.0000    0.0000    0.0000 C   0  0  0  0  0  0  0  0  0  0  0  0
    0.0000    0.0000    0.0000 C   0  0  0  0  0  0  0  0  0  0  0  0
    0.0000    0.0000    0.0000 C   0  0  0  0  0  0  0  0  0  0  0  0
    0.0000    0.0000    0.0000 F   0  0  0  0  0  0  0  0  0  0  0  0
    0.0000    0.0000    0.0000 F   0  0  0  0  0  0  0  0  0  0  0  0
    0.0000    0.0000    0.0000 F   0  0  0  0  0  0  0  0  0  0  0  0
    0.0000    0.0000    0.0000 C   0  0  0  0  0  0  0  0  0  0  0  0
    0.0000    0.0000    0.0000 O   0  0  0  0  0  0  0  0  0  0  0  0
    0.0000    0.0000    0.0000 N   0  0  0  0  0  0  0  0  0  0  0  0
    0.0000    0.0000    0.0000 C   0  0  0  0  0  0  0  0  0  0  0  0
    0.0000    0.0000    0.0000 C   0  0  0  0  0  0  0  0  0  0  0  0
    0.0000    0.0000    0.0000 C   0  0  0  0  0  0  0  0  0  0  0  0
    0.0000    0.0000    0.0000 C   0  0  0  0  0  0  0  0  0  0  0  0
    0.0000    0.0000    0.0000 C   0  0  0  0  0  0  0  0  0  0  0  0
    0.0000    0.0000    0.0000 C   0  0  0  0  0  0  0  0  0  0  0  0
    0.0000    0.0000    0.0000 C   0  0  0  0  0  0  0  0  0  0  0  0
    0.0000    0.0000    0.0000 C   0  0  0  0  0  0  0  0  0  0  0  0
    0.0000    0.0000    0.0000 C   0  0  0  0  0  0  0  0  0  0  0  0
    0.0000    0.0000    0.0000 C   0  0  0  0  0  0  0  0  0  0  0  0
    0.0000    0.0000    0.0000 C   0  0  0  0  0  0  0  0  0  0  0  0
    0.0000    0.0000    0.0000 N   0  0  0  0  0  0  0  0  0  0  0  0
    0.0000    0.0000    0.0000 C   0  0  0  0  0  0  0  0  0  0  0  0
    0.0000    0.0000    0.0000 C   0  0  0  0  0  0  0  0  0  0  0  0
    0.0000    0.0000    0.0000 C   0  0  0  0  0  0  0  0  0  0  0  0
    0.0000    0.0000    0.0000 C   0  0  0  0  0  0  0  0  0  0  0  0
    0.0000    0.0000    0.0000 C   0  0  0  0  0  0  0  0  0  0  0  0
    0.0000    0.0000    0.0000 N   0  0  0  0  0  0  0  0  0  0  0  0
    0.0000    0.0000    0.0000 C   0  0  0  0  0  0  0  0  0  0  0  0
    0.0000    0.0000    0.0000 C   0  0  0  0  0  0  0  0  0  0  0  0
  1  2  1  0
  2  3  1  0
  3  4  1  0
  4  5  1  0
  5  6  1  0
  6  7  1  0
  7  8  2  0
  8  9  1  0
  9 10  2  0
 10 11  1  0
 11 12  2  0
 12 13  1  0
 13 14  1  0
 13 15  1  0
 13 16  1  0
 10 17  1  0
 17 18  2  0
 17 19  1  0
 19 20  1  0
 20 21  2  0
 21 22  1  0
 22 23  2  0
 23 24  1  0
 23 25  1  0
 25 26  2  0
 25 27  1  0
 27 28  3  0
 28 29  1  0
 29 30  2  0
 30 31  1  0
 31 32  2  0
 32 33  1  0
 33 34  2  0
 34 35  1  0
 35 36  2  0
 36 37  1  0
  5 38  1  0
 38 39  1  0
 39  2  1  0
 12  7  1  0
 26 20  1  0
 37 29  1  0
 37 32  1  0
M  END
>  <pIC50>  (278) 
8.05

>  <ChEMBL_ID>  (278) 
CHEMBL1171281

>  <document_journal>  (278) 
J. Med. Chem.

>  <bao_endpoint>  (278) 
BAO_0000190

>  <potential_duplicate>  (278) 
False

>  <uo_units>  (278) 
UO_0000065

>  <canonical_smiles>  (278) 
CN1CCN(Cc2ccc(cc2C(F)(F)F)C(=O)Nc3ccc(C)c(c3)C#Cc4cnc5ccccn45)CC1

>  <parent_molecule_chembl_id>  (278) 
CHEMBL1171281

>  <assay_type>  (278) 
B

>  <src_id>  (278) 
1

>  <ligand_efficiency>  (278) 
{u'le': u'0.28', u'bei': u'15.14', u'sei': u'15.22', u'lle': u'2.7'}

>  <standard_flag>  (278) 
True

>  <molecule_chembl_id>  (278) 
CHEMBL1171281

>  <target_organism>  (278) 
Homo sapiens

>  <standard_units>  (278) 
nM

>  <record_id>  (278) 
923790

>  <document_chembl_id>  (278) 
CHEMBL1177713

>  <bao_format>  (278) 
BAO_0000357

>  <data_validity_description>  (278) 
None

>  <activity_id>  (278) 
3360180

>  <standard_type>  (278) 
IC50

>  <target_chembl_id>  (278) 
CHEMBL1862

>  <data_validity_comment>  (278) 
None

>  <published_value>  (278) 
9

>  <document_year>  (278) 
2010

>  <target_pref_name>  (278) 
Tyrosine-protein kinase ABL

>  <assay_chembl_id>  (278) 
CHEMBL1176860

>  <standard_relation>  (278) 
=

>  <assay_description>  (278) 
Inhibition of wild type human ABL after 1 hr by TR-FRET assay

>  <published_relation>  (278) 
=

>  <standard_value>  (278) 
9

>  <qudt_units>  (278) 
http://www.openphacts.org/units/Nanomolar

>  <target_tax_id>  (278) 
9606

>  <bao_label>  (278) 
single protein format

>  <published_units>  (278) 
nM

>  <pchembl_value>  (278) 
8.05

>  <published_type>  (278) 
IC50

>  <activity_comment>  (278) 
None

$$$$

     RDKit          

 39 43  0  0  0  0  0  0  0  0999 V2000
    0.0000    0.0000    0.0000 C   0  0  0  0  0  0  0  0  0  0  0  0
    0.0000    0.0000    0.0000 N   0  0  0  0  0  0  0  0  0  0  0  0
    0.0000    0.0000    0.0000 C   0  0  0  0  0  0  0  0  0  0  0  0
    0.0000    0.0000    0.0000 C   0  0  0  0  0  0  0  0  0  0  0  0
    0.0000    0.0000    0.0000 N   0  0  0  0  0  0  0  0  0  0  0  0
    0.0000    0.0000    0.0000 C   0  0  0  0  0  0  0  0  0  0  0  0
    0.0000    0.0000    0.0000 C   0  0  0  0  0  0  0  0  0  0  0  0
    0.0000    0.0000    0.0000 C   0  0  0  0  0  0  0  0  0  0  0  0
    0.0000    0.0000    0.0000 C   0  0  0  0  0  0  0  0  0  0  0  0
    0.0000    0.0000    0.0000 N   0  0  0  0  0  0  0  0  0  0  0  0
    0.0000    0.0000    0.0000 C   0  0  0  0  0  0  0  0  0  0  0  0
    0.0000    0.0000    0.0000 O   0  0  0  0  0  0  0  0  0  0  0  0
    0.0000    0.0000    0.0000 C   0  0  0  0  0  0  0  0  0  0  0  0
    0.0000    0.0000    0.0000 C   0  0  0  0  0  0  0  0  0  0  0  0
    0.0000    0.0000    0.0000 C   0  0  0  0  0  0  0  0  0  0  0  0
    0.0000    0.0000    0.0000 C   0  0  0  0  0  0  0  0  0  0  0  0
    0.0000    0.0000    0.0000 C   0  0  0  0  0  0  0  0  0  0  0  0
    0.0000    0.0000    0.0000 C   0  0  0  0  0  0  0  0  0  0  0  0
    0.0000    0.0000    0.0000 C   0  0  0  0  0  0  0  0  0  0  0  0
    0.0000    0.0000    0.0000 C   0  0  0  0  0  0  0  0  0  0  0  0
    0.0000    0.0000    0.0000 C   0  0  0  0  0  0  0  0  0  0  0  0
    0.0000    0.0000    0.0000 C   0  0  0  0  0  0  0  0  0  0  0  0
    0.0000    0.0000    0.0000 C   0  0  0  0  0  0  0  0  0  0  0  0
    0.0000    0.0000    0.0000 N   0  0  0  0  0  0  0  0  0  0  0  0
    0.0000    0.0000    0.0000 C   0  0  0  0  0  0  0  0  0  0  0  0
    0.0000    0.0000    0.0000 C   0  0  0  0  0  0  0  0  0  0  0  0
    0.0000    0.0000    0.0000 C   0  0  0  0  0  0  0  0  0  0  0  0
    0.0000    0.0000    0.0000 C   0  0  0  0  0  0  0  0  0  0  0  0
    0.0000    0.0000    0.0000 C   0  0  0  0  0  0  0  0  0  0  0  0
    0.0000    0.0000    0.0000 N   0  0  0  0  0  0  0  0  0  0  0  0
    0.0000    0.0000    0.0000 C   0  0  0  0  0  0  0  0  0  0  0  0
    0.0000    0.0000    0.0000 C   0  0  0  0  0  0  0  0  0  0  0  0
    0.0000    0.0000    0.0000 C   0  0  0  0  0  0  0  0  0  0  0  0
    0.0000    0.0000    0.0000 C   0  0  0  0  0  0  0  0  0  0  0  0
    0.0000    0.0000    0.0000 F   0  0  0  0  0  0  0  0  0  0  0  0
    0.0000    0.0000    0.0000 F   0  0  0  0  0  0  0  0  0  0  0  0
    0.0000    0.0000    0.0000 F   0  0  0  0  0  0  0  0  0  0  0  0
    0.0000    0.0000    0.0000 C   0  0  0  0  0  0  0  0  0  0  0  0
    0.0000    0.0000    0.0000 C   0  0  0  0  0  0  0  0  0  0  0  0
  1  2  1  0
  2  3  1  0
  3  4  1  0
  4  5  1  0
  5  6  1  0
  6  7  1  0
  7  8  2  0
  8  9  1  0
  9 10  1  0
 10 11  1  0
 11 12  2  0
 11 13  1  0
 13 14  2  0
 14 15  1  0
 15 16  2  0
 16 17  1  0
 16 18  1  0
 18 19  2  0
 18 20  1  0
 20 21  3  0
 21 22  1  0
 22 23  2  0
 23 24  1  0
 24 25  2  0
 25 26  1  0
 26 27  2  0
 27 28  1  0
 28 29  2  0
 29 30  1  0
  9 31  2  0
 31 32  1  0
 32 33  2  0
 32 34  1  0
 34 35  1  0
 34 36  1  0
 34 37  1  0
  5 38  1  0
 38 39  1  0
 39  2  1  0
 33  7  1  0
 19 13  1  0
 30 22  1  0
 30 25  1  0
M  END
>  <pIC50>  (279) 
7.62

>  <ChEMBL_ID>  (279) 
CHEMBL1171282

>  <document_journal>  (279) 
J. Med. Chem.

>  <bao_endpoint>  (279) 
BAO_0000190

>  <potential_duplicate>  (279) 
False

>  <uo_units>  (279) 
UO_0000065

>  <canonical_smiles>  (279) 
CN1CCN(Cc2cc(NC(=O)c3ccc(C)c(c3)C#Cc4cnc5ccccn45)cc(c2)C(F)(F)F)CC1

>  <parent_molecule_chembl_id>  (279) 
CHEMBL1171282

>  <assay_type>  (279) 
B

>  <src_id>  (279) 
1

>  <ligand_efficiency>  (279) 
{u'le': u'0.27', u'bei': u'14.33', u'sei': u'14.41', u'lle': u'2.27'}

>  <standard_flag>  (279) 
True

>  <molecule_chembl_id>  (279) 
CHEMBL1171282

>  <target_organism>  (279) 
Homo sapiens

>  <standard_units>  (279) 
nM

>  <record_id>  (279) 
923859

>  <document_chembl_id>  (279) 
CHEMBL1177713

>  <bao_format>  (279) 
BAO_0000357

>  <data_validity_description>  (279) 
None

>  <activity_id>  (279) 
3360181

>  <standard_type>  (279) 
IC50

>  <target_chembl_id>  (279) 
CHEMBL1862

>  <data_validity_comment>  (279) 
None

>  <published_value>  (279) 
24

>  <document_year>  (279) 
2010

>  <target_pref_name>  (279) 
Tyrosine-protein kinase ABL

>  <assay_chembl_id>  (279) 
CHEMBL1176860

>  <standard_relation>  (279) 
=

>  <assay_description>  (279) 
Inhibition of wild type human ABL after 1 hr by TR-FRET assay

>  <published_relation>  (279) 
=

>  <standard_value>  (279) 
24

>  <qudt_units>  (279) 
http://www.openphacts.org/units/Nanomolar

>  <target_tax_id>  (279) 
9606

>  <bao_label>  (279) 
single protein format

>  <published_units>  (279) 
nM

>  <pchembl_value>  (279) 
7.62

>  <published_type>  (279) 
IC50

>  <activity_comment>  (279) 
None

$$$$

     RDKit          

 38 42  0  0  0  0  0  0  0  0999 V2000
    0.0000    0.0000    0.0000 C   0  0  0  0  0  0  0  0  0  0  0  0
    0.0000    0.0000    0.0000 C   0  0  0  0  0  0  0  0  0  0  0  0
    0.0000    0.0000    0.0000 C   0  0  0  0  0  0  0  0  0  0  0  0
    0.0000    0.0000    0.0000 C   0  0  0  0  0  0  0  0  0  0  0  0
    0.0000    0.0000    0.0000 C   0  0  0  0  0  0  0  0  0  0  0  0
    0.0000    0.0000    0.0000 C   0  0  0  0  0  0  0  0  0  0  0  0
    0.0000    0.0000    0.0000 C   0  0  0  0  0  0  0  0  0  0  0  0
    0.0000    0.0000    0.0000 C   0  0  0  0  0  0  0  0  0  0  0  0
    0.0000    0.0000    0.0000 C   0  0  0  0  0  0  0  0  0  0  0  0
    0.0000    0.0000    0.0000 C   0  0  0  0  0  0  0  0  0  0  0  0
    0.0000    0.0000    0.0000 C   0  0  0  0  0  0  0  0  0  0  0  0
    0.0000    0.0000    0.0000 N   0  0  0  0  0  0  0  0  0  0  0  0
    0.0000    0.0000    0.0000 C   0  0  0  0  0  0  0  0  0  0  0  0
    0.0000    0.0000    0.0000 C   0  0  0  0  0  0  0  0  0  0  0  0
    0.0000    0.0000    0.0000 C   0  0  0  0  0  0  0  0  0  0  0  0
    0.0000    0.0000    0.0000 C   0  0  0  0  0  0  0  0  0  0  0  0
    0.0000    0.0000    0.0000 C   0  0  0  0  0  0  0  0  0  0  0  0
    0.0000    0.0000    0.0000 N   0  0  0  0  0  0  0  0  0  0  0  0
    0.0000    0.0000    0.0000 C   0  0  0  0  0  0  0  0  0  0  0  0
    0.0000    0.0000    0.0000 O   0  0  0  0  0  0  0  0  0  0  0  0
    0.0000    0.0000    0.0000 N   0  0  0  0  0  0  0  0  0  0  0  0
    0.0000    0.0000    0.0000 C   0  0  0  0  0  0  0  0  0  0  0  0
    0.0000    0.0000    0.0000 C   0  0  0  0  0  0  0  0  0  0  0  0
    0.0000    0.0000    0.0000 C   0  0  0  0  0  0  0  0  0  0  0  0
    0.0000    0.0000    0.0000 C   0  0  0  0  0  0  0  0  0  0  0  0
    0.0000    0.0000    0.0000 C   0  0  0  0  0  0  0  0  0  0  0  0
    0.0000    0.0000    0.0000 N   0  0  0  0  0  0  0  0  0  0  0  0
    0.0000    0.0000    0.0000 C   0  0  0  0  0  0  0  0  0  0  0  0
    0.0000    0.0000    0.0000 C   0  0  0  0  0  0  0  0  0  0  0  0
    0.0000    0.0000    0.0000 O   0  0  0  0  0  0  0  0  0  0  0  0
    0.0000    0.0000    0.0000 C   0  0  0  0  0  0  0  0  0  0  0  0
    0.0000    0.0000    0.0000 C   0  0  0  0  0  0  0  0  0  0  0  0
    0.0000    0.0000    0.0000 C   0  0  0  0  0  0  0  0  0  0  0  0
    0.0000    0.0000    0.0000 C   0  0  0  0  0  0  0  0  0  0  0  0
    0.0000    0.0000    0.0000 C   0  0  0  0  0  0  0  0  0  0  0  0
    0.0000    0.0000    0.0000 F   0  0  0  0  0  0  0  0  0  0  0  0
    0.0000    0.0000    0.0000 F   0  0  0  0  0  0  0  0  0  0  0  0
    0.0000    0.0000    0.0000 F   0  0  0  0  0  0  0  0  0  0  0  0
  1  2  1  0
  2  3  2  0
  3  4  1  0
  4  5  2  0
  5  6  1  0
  6  7  2  0
  7  8  1  0
  8  9  3  0
  9 10  1  0
 10 11  2  0
 11 12  1  0
 12 13  2  0
 13 14  1  0
 14 15  2  0
 15 16  1  0
 16 17  2  0
 17 18  1  0
  5 19  1  0
 19 20  2  0
 19 21  1  0
 21 22  1  0
 22 23  2  0
 23 24  1  0
 24 25  2  0
 25 26  1  0
 26 27  1  0
 27 28  1  0
 28 29  1  0
 29 30  1  0
 30 31  1  0
 31 32  1  0
 25 33  1  0
 33 34  2  0
 33 35  1  0
 35 36  1  0
 35 37  1  0
 35 38  1  0
  7  2  1  0
 18 10  1  0
 18 13  1  0
 34 22  1  0
 32 27  1  0
M  END
>  <pIC50>  (280) 
7.11

>  <ChEMBL_ID>  (280) 
CHEMBL1171283

>  <document_journal>  (280) 
J. Med. Chem.

>  <bao_endpoint>  (280) 
BAO_0000190

>  <potential_duplicate>  (280) 
False

>  <uo_units>  (280) 
UO_0000065

>  <canonical_smiles>  (280) 
Cc1ccc(cc1C#Cc2cnc3ccccn23)C(=O)Nc4ccc(CN5CCOCC5)c(c4)C(F)(F)F

>  <parent_molecule_chembl_id>  (280) 
CHEMBL1171283

>  <assay_type>  (280) 
B

>  <src_id>  (280) 
1

>  <ligand_efficiency>  (280) 
{u'le': u'0.26', u'bei': u'13.71', u'sei': u'12.07', u'lle': u'2.03'}

>  <standard_flag>  (280) 
True

>  <molecule_chembl_id>  (280) 
CHEMBL1171283

>  <target_organism>  (280) 
Homo sapiens

>  <standard_units>  (280) 
nM

>  <record_id>  (280) 
923860

>  <document_chembl_id>  (280) 
CHEMBL1177713

>  <bao_format>  (280) 
BAO_0000357

>  <data_validity_description>  (280) 
None

>  <activity_id>  (280) 
3360182

>  <standard_type>  (280) 
IC50

>  <target_chembl_id>  (280) 
CHEMBL1862

>  <data_validity_comment>  (280) 
None

>  <published_value>  (280) 
78

>  <document_year>  (280) 
2010

>  <target_pref_name>  (280) 
Tyrosine-protein kinase ABL

>  <assay_chembl_id>  (280) 
CHEMBL1176860

>  <standard_relation>  (280) 
=

>  <assay_description>  (280) 
Inhibition of wild type human ABL after 1 hr by TR-FRET assay

>  <published_relation>  (280) 
=

>  <standard_value>  (280) 
78

>  <qudt_units>  (280) 
http://www.openphacts.org/units/Nanomolar

>  <target_tax_id>  (280) 
9606

>  <bao_label>  (280) 
single protein format

>  <published_units>  (280) 
nM

>  <pchembl_value>  (280) 
7.11

>  <published_type>  (280) 
IC50

>  <activity_comment>  (280) 
None

$$$$

     RDKit          

 40 44  0  0  0  0  0  0  0  0999 V2000
    0.0000    0.0000    0.0000 C   0  0  0  0  0  0  0  0  0  0  0  0
    0.0000    0.0000    0.0000 N   0  0  0  0  0  0  0  0  0  0  0  0
    0.0000    0.0000    0.0000 C   0  0  0  0  0  0  0  0  0  0  0  0
    0.0000    0.0000    0.0000 C   0  0  0  0  0  0  0  0  0  0  0  0
    0.0000    0.0000    0.0000 C   0  0  0  0  0  0  0  0  0  0  0  0
    0.0000    0.0000    0.0000 C   0  0  0  0  0  0  0  0  0  0  0  0
    0.0000    0.0000    0.0000 N   0  0  0  0  0  0  0  0  0  0  0  0
    0.0000    0.0000    0.0000 C   0  0  0  0  0  0  0  0  0  0  0  0
    0.0000    0.0000    0.0000 C   0  0  0  0  0  0  0  0  0  0  0  0
    0.0000    0.0000    0.0000 C   0  0  0  0  0  0  0  0  0  0  0  0
    0.0000    0.0000    0.0000 C   0  0  0  0  0  0  0  0  0  0  0  0
    0.0000    0.0000    0.0000 C   0  0  0  0  0  0  0  0  0  0  0  0
    0.0000    0.0000    0.0000 N   0  0  0  0  0  0  0  0  0  0  0  0
    0.0000    0.0000    0.0000 C   0  0  0  0  0  0  0  0  0  0  0  0
    0.0000    0.0000    0.0000 O   0  0  0  0  0  0  0  0  0  0  0  0
    0.0000    0.0000    0.0000 C   0  0  0  0  0  0  0  0  0  0  0  0
    0.0000    0.0000    0.0000 C   0  0  0  0  0  0  0  0  0  0  0  0
    0.0000    0.0000    0.0000 C   0  0  0  0  0  0  0  0  0  0  0  0
    0.0000    0.0000    0.0000 C   0  0  0  0  0  0  0  0  0  0  0  0
    0.0000    0.0000    0.0000 C   0  0  0  0  0  0  0  0  0  0  0  0
    0.0000    0.0000    0.0000 C   0  0  0  0  0  0  0  0  0  0  0  0
    0.0000    0.0000    0.0000 C   0  0  0  0  0  0  0  0  0  0  0  0
    0.0000    0.0000    0.0000 C   0  0  0  0  0  0  0  0  0  0  0  0
    0.0000    0.0000    0.0000 C   0  0  0  0  0  0  0  0  0  0  0  0
    0.0000    0.0000    0.0000 C   0  0  0  0  0  0  0  0  0  0  0  0
    0.0000    0.0000    0.0000 C   0  0  0  0  0  0  0  0  0  0  0  0
    0.0000    0.0000    0.0000 N   0  0  0  0  0  0  0  0  0  0  0  0
    0.0000    0.0000    0.0000 C   0  0  0  0  0  0  0  0  0  0  0  0
    0.0000    0.0000    0.0000 C   0  0  0  0  0  0  0  0  0  0  0  0
    0.0000    0.0000    0.0000 C   0  0  0  0  0  0  0  0  0  0  0  0
    0.0000    0.0000    0.0000 C   0  0  0  0  0  0  0  0  0  0  0  0
    0.0000    0.0000    0.0000 C   0  0  0  0  0  0  0  0  0  0  0  0
    0.0000    0.0000    0.0000 N   0  0  0  0  0  0  0  0  0  0  0  0
    0.0000    0.0000    0.0000 C   0  0  0  0  0  0  0  0  0  0  0  0
    0.0000    0.0000    0.0000 C   0  0  0  0  0  0  0  0  0  0  0  0
    0.0000    0.0000    0.0000 C   0  0  0  0  0  0  0  0  0  0  0  0
    0.0000    0.0000    0.0000 F   0  0  0  0  0  0  0  0  0  0  0  0
    0.0000    0.0000    0.0000 F   0  0  0  0  0  0  0  0  0  0  0  0
    0.0000    0.0000    0.0000 F   0  0  0  0  0  0  0  0  0  0  0  0
    0.0000    0.0000    0.0000 C   0  0  0  0  0  0  0  0  0  0  0  0
  1  2  1  0
  2  3  1  0
  2  4  1  0
  4  5  1  0
  5  6  1  0
  6  7  1  0
  7  8  1  0
  8  9  1  0
  9 10  2  0
 10 11  1  0
 11 12  2  0
 12 13  1  0
 13 14  1  0
 14 15  2  0
 14 16  1  0
 16 17  2  0
 17 18  1  0
 18 19  2  0
 19 20  1  0
 19 21  1  0
 21 22  2  0
 21 23  1  0
 23 24  3  0
 24 25  1  0
 25 26  2  0
 26 27  1  0
 27 28  2  0
 28 29  1  0
 29 30  2  0
 30 31  1  0
 31 32  2  0
 32 33  1  0
 12 34  1  0
 34 35  2  0
 35 36  1  0
 36 37  1  0
 36 38  1  0
 36 39  1  0
  7 40  1  0
 40  4  1  0
 35  9  1  0
 22 16  1  0
 33 25  1  0
 33 28  1  0
M  END
>  <pIC50>  (281) 
7.82

>  <ChEMBL_ID>  (281) 
CHEMBL1171473

>  <document_journal>  (281) 
J. Med. Chem.

>  <bao_endpoint>  (281) 
BAO_0000190

>  <potential_duplicate>  (281) 
False

>  <uo_units>  (281) 
UO_0000065

>  <canonical_smiles>  (281) 
CN(C)[C@H]1CCN(Cc2ccc(NC(=O)c3ccc(C)c(c3)C#Cc4cnc5ccccn45)cc2C(F)(F)F)C1

>  <parent_molecule_chembl_id>  (281) 
CHEMBL1171473

>  <assay_type>  (281) 
B

>  <src_id>  (281) 
1

>  <ligand_efficiency>  (281) 
{u'le': u'0.27', u'bei': u'14.34', u'sei': u'14.8', u'lle': u'2.38'}

>  <standard_flag>  (281) 
True

>  <molecule_chembl_id>  (281) 
CHEMBL1171473

>  <target_organism>  (281) 
Homo sapiens

>  <standard_units>  (281) 
nM

>  <record_id>  (281) 
923861

>  <document_chembl_id>  (281) 
CHEMBL1177713

>  <bao_format>  (281) 
BAO_0000357

>  <data_validity_description>  (281) 
None

>  <activity_id>  (281) 
3360183

>  <standard_type>  (281) 
IC50

>  <target_chembl_id>  (281) 
CHEMBL1862

>  <data_validity_comment>  (281) 
None

>  <published_value>  (281) 
15

>  <document_year>  (281) 
2010

>  <target_pref_name>  (281) 
Tyrosine-protein kinase ABL

>  <assay_chembl_id>  (281) 
CHEMBL1176860

>  <standard_relation>  (281) 
=

>  <assay_description>  (281) 
Inhibition of wild type human ABL after 1 hr by TR-FRET assay

>  <published_relation>  (281) 
=

>  <standard_value>  (281) 
15

>  <qudt_units>  (281) 
http://www.openphacts.org/units/Nanomolar

>  <target_tax_id>  (281) 
9606

>  <bao_label>  (281) 
single protein format

>  <published_units>  (281) 
nM

>  <pchembl_value>  (281) 
7.82

>  <published_type>  (281) 
IC50

>  <activity_comment>  (281) 
None

$$$$

     RDKit          

 40 44  0  0  0  0  0  0  0  0999 V2000
    0.0000    0.0000    0.0000 C   0  0  0  0  0  0  0  0  0  0  0  0
    0.0000    0.0000    0.0000 N   0  0  0  0  0  0  0  0  0  0  0  0
    0.0000    0.0000    0.0000 C   0  0  0  0  0  0  0  0  0  0  0  0
    0.0000    0.0000    0.0000 C   0  0  0  0  0  0  0  0  0  0  0  0
    0.0000    0.0000    0.0000 C   0  0  0  0  0  0  0  0  0  0  0  0
    0.0000    0.0000    0.0000 N   0  0  0  0  0  0  0  0  0  0  0  0
    0.0000    0.0000    0.0000 C   0  0  0  0  0  0  0  0  0  0  0  0
    0.0000    0.0000    0.0000 C   0  0  0  0  0  0  0  0  0  0  0  0
    0.0000    0.0000    0.0000 C   0  0  0  0  0  0  0  0  0  0  0  0
    0.0000    0.0000    0.0000 C   0  0  0  0  0  0  0  0  0  0  0  0
    0.0000    0.0000    0.0000 C   0  0  0  0  0  0  0  0  0  0  0  0
    0.0000    0.0000    0.0000 N   0  0  0  0  0  0  0  0  0  0  0  0
    0.0000    0.0000    0.0000 C   0  0  0  0  0  0  0  0  0  0  0  0
    0.0000    0.0000    0.0000 O   0  0  0  0  0  0  0  0  0  0  0  0
    0.0000    0.0000    0.0000 C   0  0  0  0  0  0  0  0  0  0  0  0
    0.0000    0.0000    0.0000 C   0  0  0  0  0  0  0  0  0  0  0  0
    0.0000    0.0000    0.0000 C   0  0  0  0  0  0  0  0  0  0  0  0
    0.0000    0.0000    0.0000 C   0  0  0  0  0  0  0  0  0  0  0  0
    0.0000    0.0000    0.0000 C   0  0  0  0  0  0  0  0  0  0  0  0
    0.0000    0.0000    0.0000 C   0  0  0  0  0  0  0  0  0  0  0  0
    0.0000    0.0000    0.0000 C   0  0  0  0  0  0  0  0  0  0  0  0
    0.0000    0.0000    0.0000 C   0  0  0  0  0  0  0  0  0  0  0  0
    0.0000    0.0000    0.0000 C   0  0  0  0  0  0  0  0  0  0  0  0
    0.0000    0.0000    0.0000 C   0  0  0  0  0  0  0  0  0  0  0  0
    0.0000    0.0000    0.0000 C   0  0  0  0  0  0  0  0  0  0  0  0
    0.0000    0.0000    0.0000 N   0  0  0  0  0  0  0  0  0  0  0  0
    0.0000    0.0000    0.0000 C   0  0  0  0  0  0  0  0  0  0  0  0
    0.0000    0.0000    0.0000 C   0  0  0  0  0  0  0  0  0  0  0  0
    0.0000    0.0000    0.0000 C   0  0  0  0  0  0  0  0  0  0  0  0
    0.0000    0.0000    0.0000 C   0  0  0  0  0  0  0  0  0  0  0  0
    0.0000    0.0000    0.0000 C   0  0  0  0  0  0  0  0  0  0  0  0
    0.0000    0.0000    0.0000 N   0  0  0  0  0  0  0  0  0  0  0  0
    0.0000    0.0000    0.0000 C   0  0  0  0  0  0  0  0  0  0  0  0
    0.0000    0.0000    0.0000 C   0  0  0  0  0  0  0  0  0  0  0  0
    0.0000    0.0000    0.0000 C   0  0  0  0  0  0  0  0  0  0  0  0
    0.0000    0.0000    0.0000 F   0  0  0  0  0  0  0  0  0  0  0  0
    0.0000    0.0000    0.0000 F   0  0  0  0  0  0  0  0  0  0  0  0
    0.0000    0.0000    0.0000 F   0  0  0  0  0  0  0  0  0  0  0  0
    0.0000    0.0000    0.0000 C   0  0  0  0  0  0  0  0  0  0  0  0
    0.0000    0.0000    0.0000 C   0  0  0  0  0  0  0  0  0  0  0  0
  1  2  1  0
  2  3  1  0
  3  4  1  0
  4  5  1  0
  5  6  1  0
  6  7  1  0
  7  8  1  0
  8  9  2  0
  9 10  1  0
 10 11  2  0
 11 12  1  0
 12 13  1  0
 13 14  2  0
 13 15  1  0
 15 16  2  0
 16 17  1  0
 17 18  2  0
 18 19  1  0
 18 20  1  0
 20 21  2  0
 20 22  1  0
 22 23  3  0
 23 24  1  0
 24 25  2  0
 25 26  1  0
 26 27  2  0
 27 28  1  0
 28 29  2  0
 29 30  1  0
 30 31  2  0
 31 32  1  0
 11 33  1  0
 33 34  2  0
 34 35  1  0
 35 36  1  0
 35 37  1  0
 35 38  1  0
  6 39  1  0
 39 40  1  0
 40  2  1  0
 34  8  1  0
 21 15  1  0
 32 24  1  0
 32 27  1  0
M  END
>  <pIC50>  (282) 
7.89

>  <ChEMBL_ID>  (282) 
CHEMBL1169705

>  <document_journal>  (282) 
J. Med. Chem.

>  <bao_endpoint>  (282) 
BAO_0000190

>  <potential_duplicate>  (282) 
False

>  <uo_units>  (282) 
UO_0000065

>  <canonical_smiles>  (282) 
CN1CCCN(Cc2ccc(NC(=O)c3ccc(C)c(c3)C#Cc4cnc5ccccn45)cc2C(F)(F)F)CC1

>  <parent_molecule_chembl_id>  (282) 
CHEMBL1169705

>  <assay_type>  (282) 
B

>  <src_id>  (282) 
1

>  <ligand_efficiency>  (282) 
{u'le': u'0.27', u'bei': u'14.45', u'sei': u'14.91', u'lle': u'2.48'}

>  <standard_flag>  (282) 
True

>  <molecule_chembl_id>  (282) 
CHEMBL1169705

>  <target_organism>  (282) 
Homo sapiens

>  <standard_units>  (282) 
nM

>  <record_id>  (282) 
923949

>  <document_chembl_id>  (282) 
CHEMBL1177713

>  <bao_format>  (282) 
BAO_0000357

>  <data_validity_description>  (282) 
None

>  <activity_id>  (282) 
3360184

>  <standard_type>  (282) 
IC50

>  <target_chembl_id>  (282) 
CHEMBL1862

>  <data_validity_comment>  (282) 
None

>  <published_value>  (282) 
13

>  <document_year>  (282) 
2010

>  <target_pref_name>  (282) 
Tyrosine-protein kinase ABL

>  <assay_chembl_id>  (282) 
CHEMBL1176860

>  <standard_relation>  (282) 
=

>  <assay_description>  (282) 
Inhibition of wild type human ABL after 1 hr by TR-FRET assay

>  <published_relation>  (282) 
=

>  <standard_value>  (282) 
13

>  <qudt_units>  (282) 
http://www.openphacts.org/units/Nanomolar

>  <target_tax_id>  (282) 
9606

>  <bao_label>  (282) 
single protein format

>  <published_units>  (282) 
nM

>  <pchembl_value>  (282) 
7.89

>  <published_type>  (282) 
IC50

>  <activity_comment>  (282) 
None

$$$$

     RDKit          

 39 43  0  0  0  0  0  0  0  0999 V2000
    0.0000    0.0000    0.0000 C   0  0  0  0  0  0  0  0  0  0  0  0
    0.0000    0.0000    0.0000 N   0  0  0  0  0  0  0  0  0  0  0  0
    0.0000    0.0000    0.0000 C   0  0  0  0  0  0  0  0  0  0  0  0
    0.0000    0.0000    0.0000 C   0  0  0  0  0  0  0  0  0  0  0  0
    0.0000    0.0000    0.0000 C   0  0  0  0  0  0  0  0  0  0  0  0
    0.0000    0.0000    0.0000 C   0  0  0  0  0  0  0  0  0  0  0  0
    0.0000    0.0000    0.0000 C   0  0  0  0  0  0  0  0  0  0  0  0
    0.0000    0.0000    0.0000 O   0  0  0  0  0  0  0  0  0  0  0  0
    0.0000    0.0000    0.0000 C   0  0  0  0  0  0  0  0  0  0  0  0
    0.0000    0.0000    0.0000 C   0  0  0  0  0  0  0  0  0  0  0  0
    0.0000    0.0000    0.0000 C   0  0  0  0  0  0  0  0  0  0  0  0
    0.0000    0.0000    0.0000 C   0  0  0  0  0  0  0  0  0  0  0  0
    0.0000    0.0000    0.0000 N   0  0  0  0  0  0  0  0  0  0  0  0
    0.0000    0.0000    0.0000 C   0  0  0  0  0  0  0  0  0  0  0  0
    0.0000    0.0000    0.0000 O   0  0  0  0  0  0  0  0  0  0  0  0
    0.0000    0.0000    0.0000 C   0  0  0  0  0  0  0  0  0  0  0  0
    0.0000    0.0000    0.0000 C   0  0  0  0  0  0  0  0  0  0  0  0
    0.0000    0.0000    0.0000 C   0  0  0  0  0  0  0  0  0  0  0  0
    0.0000    0.0000    0.0000 C   0  0  0  0  0  0  0  0  0  0  0  0
    0.0000    0.0000    0.0000 C   0  0  0  0  0  0  0  0  0  0  0  0
    0.0000    0.0000    0.0000 C   0  0  0  0  0  0  0  0  0  0  0  0
    0.0000    0.0000    0.0000 C   0  0  0  0  0  0  0  0  0  0  0  0
    0.0000    0.0000    0.0000 C   0  0  0  0  0  0  0  0  0  0  0  0
    0.0000    0.0000    0.0000 C   0  0  0  0  0  0  0  0  0  0  0  0
    0.0000    0.0000    0.0000 C   0  0  0  0  0  0  0  0  0  0  0  0
    0.0000    0.0000    0.0000 C   0  0  0  0  0  0  0  0  0  0  0  0
    0.0000    0.0000    0.0000 N   0  0  0  0  0  0  0  0  0  0  0  0
    0.0000    0.0000    0.0000 C   0  0  0  0  0  0  0  0  0  0  0  0
    0.0000    0.0000    0.0000 C   0  0  0  0  0  0  0  0  0  0  0  0
    0.0000    0.0000    0.0000 C   0  0  0  0  0  0  0  0  0  0  0  0
    0.0000    0.0000    0.0000 C   0  0  0  0  0  0  0  0  0  0  0  0
    0.0000    0.0000    0.0000 C   0  0  0  0  0  0  0  0  0  0  0  0
    0.0000    0.0000    0.0000 N   0  0  0  0  0  0  0  0  0  0  0  0
    0.0000    0.0000    0.0000 C   0  0  0  0  0  0  0  0  0  0  0  0
    0.0000    0.0000    0.0000 C   0  0  0  0  0  0  0  0  0  0  0  0
    0.0000    0.0000    0.0000 C   0  0  0  0  0  0  0  0  0  0  0  0
    0.0000    0.0000    0.0000 F   0  0  0  0  0  0  0  0  0  0  0  0
    0.0000    0.0000    0.0000 F   0  0  0  0  0  0  0  0  0  0  0  0
    0.0000    0.0000    0.0000 F   0  0  0  0  0  0  0  0  0  0  0  0
  1  2  1  0
  2  3  1  0
  3  4  1  0
  4  5  1  0
  5  6  1  0
  6  7  1  0
  5  8  1  0
  8  9  1  0
  9 10  2  0
 10 11  1  0
 11 12  2  0
 12 13  1  0
 13 14  1  0
 14 15  2  0
 14 16  1  0
 16 17  2  0
 17 18  1  0
 18 19  2  0
 19 20  1  0
 19 21  1  0
 21 22  2  0
 21 23  1  0
 23 24  3  0
 24 25  1  0
 25 26  2  0
 26 27  1  0
 27 28  2  0
 28 29  1  0
 29 30  2  0
 30 31  1  0
 31 32  2  0
 32 33  1  0
 12 34  1  0
 34 35  2  0
 35 36  1  0
 36 37  1  0
 36 38  1  0
 36 39  1  0
  7  2  1  0
 35  9  1  0
 22 16  1  0
 33 25  1  0
 33 28  1  0
M  END
>  <pIC50>  (283) 
8.04

>  <ChEMBL_ID>  (283) 
CHEMBL1169881

>  <document_journal>  (283) 
J. Med. Chem.

>  <bao_endpoint>  (283) 
BAO_0000190

>  <potential_duplicate>  (283) 
False

>  <uo_units>  (283) 
UO_0000065

>  <canonical_smiles>  (283) 
CN1CCC(CC1)Oc2ccc(NC(=O)c3ccc(C)c(c3)C#Cc4cnc5ccccn45)cc2C(F)(F)F

>  <parent_molecule_chembl_id>  (283) 
CHEMBL1169881

>  <assay_type>  (283) 
B

>  <src_id>  (283) 
1

>  <ligand_efficiency>  (283) 
{u'le': u'0.28', u'bei': u'15.1', u'sei': u'13.66', u'lle': u'2.62'}

>  <standard_flag>  (283) 
True

>  <molecule_chembl_id>  (283) 
CHEMBL1169881

>  <target_organism>  (283) 
Homo sapiens

>  <standard_units>  (283) 
nM

>  <record_id>  (283) 
923950

>  <document_chembl_id>  (283) 
CHEMBL1177713

>  <bao_format>  (283) 
BAO_0000357

>  <data_validity_description>  (283) 
None

>  <activity_id>  (283) 
3360185

>  <standard_type>  (283) 
IC50

>  <target_chembl_id>  (283) 
CHEMBL1862

>  <data_validity_comment>  (283) 
None

>  <published_value>  (283) 
9.1

>  <document_year>  (283) 
2010

>  <target_pref_name>  (283) 
Tyrosine-protein kinase ABL

>  <assay_chembl_id>  (283) 
CHEMBL1176860

>  <standard_relation>  (283) 
=

>  <assay_description>  (283) 
Inhibition of wild type human ABL after 1 hr by TR-FRET assay

>  <published_relation>  (283) 
=

>  <standard_value>  (283) 
9.1

>  <qudt_units>  (283) 
http://www.openphacts.org/units/Nanomolar

>  <target_tax_id>  (283) 
9606

>  <bao_label>  (283) 
single protein format

>  <published_units>  (283) 
nM

>  <pchembl_value>  (283) 
8.04

>  <published_type>  (283) 
IC50

>  <activity_comment>  (283) 
None

$$$$

     RDKit          

 40 44  0  0  0  0  0  0  0  0999 V2000
    0.0000    0.0000    0.0000 C   0  0  0  0  0  0  0  0  0  0  0  0
    0.0000    0.0000    0.0000 C   0  0  0  0  0  0  0  0  0  0  0  0
    0.0000    0.0000    0.0000 N   0  0  0  0  0  0  0  0  0  0  0  0
    0.0000    0.0000    0.0000 C   0  0  0  0  0  0  0  0  0  0  0  0
    0.0000    0.0000    0.0000 C   0  0  0  0  0  0  0  0  0  0  0  0
    0.0000    0.0000    0.0000 N   0  0  0  0  0  0  0  0  0  0  0  0
    0.0000    0.0000    0.0000 C   0  0  0  0  0  0  0  0  0  0  0  0
    0.0000    0.0000    0.0000 C   0  0  0  0  0  0  0  0  0  0  0  0
    0.0000    0.0000    0.0000 C   0  0  0  0  0  0  0  0  0  0  0  0
    0.0000    0.0000    0.0000 C   0  0  0  0  0  0  0  0  0  0  0  0
    0.0000    0.0000    0.0000 C   0  0  0  0  0  0  0  0  0  0  0  0
    0.0000    0.0000    0.0000 N   0  0  0  0  0  0  0  0  0  0  0  0
    0.0000    0.0000    0.0000 C   0  0  0  0  0  0  0  0  0  0  0  0
    0.0000    0.0000    0.0000 O   0  0  0  0  0  0  0  0  0  0  0  0
    0.0000    0.0000    0.0000 C   0  0  0  0  0  0  0  0  0  0  0  0
    0.0000    0.0000    0.0000 C   0  0  0  0  0  0  0  0  0  0  0  0
    0.0000    0.0000    0.0000 C   0  0  0  0  0  0  0  0  0  0  0  0
    0.0000    0.0000    0.0000 C   0  0  0  0  0  0  0  0  0  0  0  0
    0.0000    0.0000    0.0000 C   0  0  0  0  0  0  0  0  0  0  0  0
    0.0000    0.0000    0.0000 C   0  0  0  0  0  0  0  0  0  0  0  0
    0.0000    0.0000    0.0000 C   0  0  0  0  0  0  0  0  0  0  0  0
    0.0000    0.0000    0.0000 C   0  0  0  0  0  0  0  0  0  0  0  0
    0.0000    0.0000    0.0000 C   0  0  0  0  0  0  0  0  0  0  0  0
    0.0000    0.0000    0.0000 C   0  0  0  0  0  0  0  0  0  0  0  0
    0.0000    0.0000    0.0000 C   0  0  0  0  0  0  0  0  0  0  0  0
    0.0000    0.0000    0.0000 N   0  0  0  0  0  0  0  0  0  0  0  0
    0.0000    0.0000    0.0000 C   0  0  0  0  0  0  0  0  0  0  0  0
    0.0000    0.0000    0.0000 C   0  0  0  0  0  0  0  0  0  0  0  0
    0.0000    0.0000    0.0000 C   0  0  0  0  0  0  0  0  0  0  0  0
    0.0000    0.0000    0.0000 C   0  0  0  0  0  0  0  0  0  0  0  0
    0.0000    0.0000    0.0000 C   0  0  0  0  0  0  0  0  0  0  0  0
    0.0000    0.0000    0.0000 N   0  0  0  0  0  0  0  0  0  0  0  0
    0.0000    0.0000    0.0000 C   0  0  0  0  0  0  0  0  0  0  0  0
    0.0000    0.0000    0.0000 C   0  0  0  0  0  0  0  0  0  0  0  0
    0.0000    0.0000    0.0000 C   0  0  0  0  0  0  0  0  0  0  0  0
    0.0000    0.0000    0.0000 F   0  0  0  0  0  0  0  0  0  0  0  0
    0.0000    0.0000    0.0000 F   0  0  0  0  0  0  0  0  0  0  0  0
    0.0000    0.0000    0.0000 F   0  0  0  0  0  0  0  0  0  0  0  0
    0.0000    0.0000    0.0000 C   0  0  0  0  0  0  0  0  0  0  0  0
    0.0000    0.0000    0.0000 C   0  0  0  0  0  0  0  0  0  0  0  0
  1  2  1  0
  2  3  1  0
  3  4  1  0
  4  5  1  0
  5  6  1  0
  6  7  1  0
  7  8  1  0
  8  9  2  0
  9 10  1  0
 10 11  2  0
 11 12  1  0
 12 13  1  0
 13 14  2  0
 13 15  1  0
 15 16  2  0
 16 17  1  0
 17 18  2  0
 18 19  1  0
 18 20  1  0
 20 21  2  0
 20 22  1  0
 22 23  3  0
 23 24  1  0
 24 25  2  0
 25 26  1  0
 26 27  2  0
 27 28  1  0
 28 29  2  0
 29 30  1  0
 30 31  2  0
 31 32  1  0
 11 33  1  0
 33 34  2  0
 34 35  1  0
 35 36  1  0
 35 37  1  0
 35 38  1  0
  6 39  1  0
 39 40  1  0
 40  3  1  0
 34  8  1  0
 21 15  1  0
 32 24  1  0
 32 27  1  0
M  END
>  <pIC50>  (284) 
7.64

>  <ChEMBL_ID>  (284) 
CHEMBL1169882

>  <document_journal>  (284) 
J. Med. Chem.

>  <bao_endpoint>  (284) 
BAO_0000190

>  <potential_duplicate>  (284) 
False

>  <uo_units>  (284) 
UO_0000065

>  <canonical_smiles>  (284) 
CCN1CCN(Cc2ccc(NC(=O)c3ccc(C)c(c3)C#Cc4cnc5ccccn45)cc2C(F)(F)F)CC1

>  <parent_molecule_chembl_id>  (284) 
CHEMBL1169882

>  <assay_type>  (284) 
B

>  <src_id>  (284) 
1

>  <ligand_efficiency>  (284) 
{u'le': u'0.26', u'bei': u'14', u'sei': u'14.44', u'lle': u'1.94'}

>  <standard_flag>  (284) 
True

>  <molecule_chembl_id>  (284) 
CHEMBL1169882

>  <target_organism>  (284) 
Homo sapiens

>  <standard_units>  (284) 
nM

>  <record_id>  (284) 
923951

>  <document_chembl_id>  (284) 
CHEMBL1177713

>  <bao_format>  (284) 
BAO_0000357

>  <data_validity_description>  (284) 
None

>  <activity_id>  (284) 
3360186

>  <standard_type>  (284) 
IC50

>  <target_chembl_id>  (284) 
CHEMBL1862

>  <data_validity_comment>  (284) 
None

>  <published_value>  (284) 
23

>  <document_year>  (284) 
2010

>  <target_pref_name>  (284) 
Tyrosine-protein kinase ABL

>  <assay_chembl_id>  (284) 
CHEMBL1176860

>  <standard_relation>  (284) 
=

>  <assay_description>  (284) 
Inhibition of wild type human ABL after 1 hr by TR-FRET assay

>  <published_relation>  (284) 
=

>  <standard_value>  (284) 
23

>  <qudt_units>  (284) 
http://www.openphacts.org/units/Nanomolar

>  <target_tax_id>  (284) 
9606

>  <bao_label>  (284) 
single protein format

>  <published_units>  (284) 
nM

>  <pchembl_value>  (284) 
7.64

>  <published_type>  (284) 
IC50

>  <activity_comment>  (284) 
None

$$$$

     RDKit          

 41 45  0  0  0  0  0  0  0  0999 V2000
    0.0000    0.0000    0.0000 C   0  0  0  0  0  0  0  0  0  0  0  0
    0.0000    0.0000    0.0000 C   0  0  0  0  0  0  0  0  0  0  0  0
    0.0000    0.0000    0.0000 C   0  0  0  0  0  0  0  0  0  0  0  0
    0.0000    0.0000    0.0000 N   0  0  0  0  0  0  0  0  0  0  0  0
    0.0000    0.0000    0.0000 C   0  0  0  0  0  0  0  0  0  0  0  0
    0.0000    0.0000    0.0000 C   0  0  0  0  0  0  0  0  0  0  0  0
    0.0000    0.0000    0.0000 N   0  0  0  0  0  0  0  0  0  0  0  0
    0.0000    0.0000    0.0000 C   0  0  0  0  0  0  0  0  0  0  0  0
    0.0000    0.0000    0.0000 C   0  0  0  0  0  0  0  0  0  0  0  0
    0.0000    0.0000    0.0000 C   0  0  0  0  0  0  0  0  0  0  0  0
    0.0000    0.0000    0.0000 C   0  0  0  0  0  0  0  0  0  0  0  0
    0.0000    0.0000    0.0000 C   0  0  0  0  0  0  0  0  0  0  0  0
    0.0000    0.0000    0.0000 N   0  0  0  0  0  0  0  0  0  0  0  0
    0.0000    0.0000    0.0000 C   0  0  0  0  0  0  0  0  0  0  0  0
    0.0000    0.0000    0.0000 O   0  0  0  0  0  0  0  0  0  0  0  0
    0.0000    0.0000    0.0000 C   0  0  0  0  0  0  0  0  0  0  0  0
    0.0000    0.0000    0.0000 C   0  0  0  0  0  0  0  0  0  0  0  0
    0.0000    0.0000    0.0000 C   0  0  0  0  0  0  0  0  0  0  0  0
    0.0000    0.0000    0.0000 C   0  0  0  0  0  0  0  0  0  0  0  0
    0.0000    0.0000    0.0000 C   0  0  0  0  0  0  0  0  0  0  0  0
    0.0000    0.0000    0.0000 C   0  0  0  0  0  0  0  0  0  0  0  0
    0.0000    0.0000    0.0000 C   0  0  0  0  0  0  0  0  0  0  0  0
    0.0000    0.0000    0.0000 C   0  0  0  0  0  0  0  0  0  0  0  0
    0.0000    0.0000    0.0000 C   0  0  0  0  0  0  0  0  0  0  0  0
    0.0000    0.0000    0.0000 C   0  0  0  0  0  0  0  0  0  0  0  0
    0.0000    0.0000    0.0000 C   0  0  0  0  0  0  0  0  0  0  0  0
    0.0000    0.0000    0.0000 N   0  0  0  0  0  0  0  0  0  0  0  0
    0.0000    0.0000    0.0000 C   0  0  0  0  0  0  0  0  0  0  0  0
    0.0000    0.0000    0.0000 C   0  0  0  0  0  0  0  0  0  0  0  0
    0.0000    0.0000    0.0000 C   0  0  0  0  0  0  0  0  0  0  0  0
    0.0000    0.0000    0.0000 C   0  0  0  0  0  0  0  0  0  0  0  0
    0.0000    0.0000    0.0000 C   0  0  0  0  0  0  0  0  0  0  0  0
    0.0000    0.0000    0.0000 N   0  0  0  0  0  0  0  0  0  0  0  0
    0.0000    0.0000    0.0000 C   0  0  0  0  0  0  0  0  0  0  0  0
    0.0000    0.0000    0.0000 C   0  0  0  0  0  0  0  0  0  0  0  0
    0.0000    0.0000    0.0000 C   0  0  0  0  0  0  0  0  0  0  0  0
    0.0000    0.0000    0.0000 F   0  0  0  0  0  0  0  0  0  0  0  0
    0.0000    0.0000    0.0000 F   0  0  0  0  0  0  0  0  0  0  0  0
    0.0000    0.0000    0.0000 F   0  0  0  0  0  0  0  0  0  0  0  0
    0.0000    0.0000    0.0000 C   0  0  0  0  0  0  0  0  0  0  0  0
    0.0000    0.0000    0.0000 C   0  0  0  0  0  0  0  0  0  0  0  0
  1  2  1  0
  2  3  1  0
  2  4  1  0
  4  5  1  0
  5  6  1  0
  6  7  1  0
  7  8  1  0
  8  9  1  0
  9 10  2  0
 10 11  1  0
 11 12  2  0
 12 13  1  0
 13 14  1  0
 14 15  2  0
 14 16  1  0
 16 17  2  0
 17 18  1  0
 18 19  2  0
 19 20  1  0
 19 21  1  0
 21 22  2  0
 21 23  1  0
 23 24  3  0
 24 25  1  0
 25 26  2  0
 26 27  1  0
 27 28  2  0
 28 29  1  0
 29 30  2  0
 30 31  1  0
 31 32  2  0
 32 33  1  0
 12 34  1  0
 34 35  2  0
 35 36  1  0
 36 37  1  0
 36 38  1  0
 36 39  1  0
  7 40  1  0
 40 41  1  0
 41  4  1  0
 35  9  1  0
 22 16  1  0
 33 25  1  0
 33 28  1  0
M  END
>  <pIC50>  (285) 
7.25

>  <ChEMBL_ID>  (285) 
CHEMBL1171043

>  <document_journal>  (285) 
J. Med. Chem.

>  <bao_endpoint>  (285) 
BAO_0000190

>  <potential_duplicate>  (285) 
False

>  <uo_units>  (285) 
UO_0000065

>  <canonical_smiles>  (285) 
CC(C)N1CCN(Cc2ccc(NC(=O)c3ccc(C)c(c3)C#Cc4cnc5ccccn45)cc2C(F)(F)F)CC1

>  <parent_molecule_chembl_id>  (285) 
CHEMBL1171043

>  <assay_type>  (285) 
B

>  <src_id>  (285) 
1

>  <ligand_efficiency>  (285) 
{u'le': u'0.24', u'bei': u'12.96', u'sei': u'13.71', u'lle': u'1.17'}

>  <standard_flag>  (285) 
True

>  <molecule_chembl_id>  (285) 
CHEMBL1171043

>  <target_organism>  (285) 
Homo sapiens

>  <standard_units>  (285) 
nM

>  <record_id>  (285) 
923952

>  <document_chembl_id>  (285) 
CHEMBL1177713

>  <bao_format>  (285) 
BAO_0000357

>  <data_validity_description>  (285) 
None

>  <activity_id>  (285) 
3360187

>  <standard_type>  (285) 
IC50

>  <target_chembl_id>  (285) 
CHEMBL1862

>  <data_validity_comment>  (285) 
None

>  <published_value>  (285) 
56

>  <document_year>  (285) 
2010

>  <target_pref_name>  (285) 
Tyrosine-protein kinase ABL

>  <assay_chembl_id>  (285) 
CHEMBL1176860

>  <standard_relation>  (285) 
=

>  <assay_description>  (285) 
Inhibition of wild type human ABL after 1 hr by TR-FRET assay

>  <published_relation>  (285) 
=

>  <standard_value>  (285) 
56

>  <qudt_units>  (285) 
http://www.openphacts.org/units/Nanomolar

>  <target_tax_id>  (285) 
9606

>  <bao_label>  (285) 
single protein format

>  <published_units>  (285) 
nM

>  <pchembl_value>  (285) 
7.25

>  <published_type>  (285) 
IC50

>  <activity_comment>  (285) 
None

$$$$

     RDKit          

 41 45  0  0  0  0  0  0  0  0999 V2000
    0.0000    0.0000    0.0000 C   0  0  0  0  0  0  0  0  0  0  0  0
    0.0000    0.0000    0.0000 C   0  0  0  0  0  0  0  0  0  0  0  0
    0.0000    0.0000    0.0000 C   0  0  0  0  0  0  0  0  0  0  0  0
    0.0000    0.0000    0.0000 C   0  0  0  0  0  0  0  0  0  0  0  0
    0.0000    0.0000    0.0000 C   0  0  0  0  0  0  0  0  0  0  0  0
    0.0000    0.0000    0.0000 C   0  0  0  0  0  0  0  0  0  0  0  0
    0.0000    0.0000    0.0000 C   0  0  0  0  0  0  0  0  0  0  0  0
    0.0000    0.0000    0.0000 C   0  0  0  0  0  0  0  0  0  0  0  0
    0.0000    0.0000    0.0000 C   0  0  0  0  0  0  0  0  0  0  0  0
    0.0000    0.0000    0.0000 C   0  0  0  0  0  0  0  0  0  0  0  0
    0.0000    0.0000    0.0000 C   0  0  0  0  0  0  0  0  0  0  0  0
    0.0000    0.0000    0.0000 N   0  0  0  0  0  0  0  0  0  0  0  0
    0.0000    0.0000    0.0000 C   0  0  0  0  0  0  0  0  0  0  0  0
    0.0000    0.0000    0.0000 C   0  0  0  0  0  0  0  0  0  0  0  0
    0.0000    0.0000    0.0000 C   0  0  0  0  0  0  0  0  0  0  0  0
    0.0000    0.0000    0.0000 C   0  0  0  0  0  0  0  0  0  0  0  0
    0.0000    0.0000    0.0000 C   0  0  0  0  0  0  0  0  0  0  0  0
    0.0000    0.0000    0.0000 N   0  0  0  0  0  0  0  0  0  0  0  0
    0.0000    0.0000    0.0000 C   0  0  0  0  0  0  0  0  0  0  0  0
    0.0000    0.0000    0.0000 O   0  0  0  0  0  0  0  0  0  0  0  0
    0.0000    0.0000    0.0000 N   0  0  0  0  0  0  0  0  0  0  0  0
    0.0000    0.0000    0.0000 C   0  0  0  0  0  0  0  0  0  0  0  0
    0.0000    0.0000    0.0000 C   0  0  0  0  0  0  0  0  0  0  0  0
    0.0000    0.0000    0.0000 C   0  0  0  0  0  0  0  0  0  0  0  0
    0.0000    0.0000    0.0000 C   0  0  0  0  0  0  0  0  0  0  0  0
    0.0000    0.0000    0.0000 C   0  0  0  0  0  0  0  0  0  0  0  0
    0.0000    0.0000    0.0000 N   0  0  0  0  0  0  0  0  0  0  0  0
    0.0000    0.0000    0.0000 C   0  0  0  0  0  0  0  0  0  0  0  0
    0.0000    0.0000    0.0000 C   0  0  0  0  0  0  0  0  0  0  0  0
    0.0000    0.0000    0.0000 N   0  0  0  0  0  0  0  0  0  0  0  0
    0.0000    0.0000    0.0000 C   0  0  0  0  0  0  0  0  0  0  0  0
    0.0000    0.0000    0.0000 C   0  0  0  0  0  0  0  0  0  0  0  0
    0.0000    0.0000    0.0000 O   0  0  0  0  0  0  0  0  0  0  0  0
    0.0000    0.0000    0.0000 C   0  0  0  0  0  0  0  0  0  0  0  0
    0.0000    0.0000    0.0000 C   0  0  0  0  0  0  0  0  0  0  0  0
    0.0000    0.0000    0.0000 C   0  0  0  0  0  0  0  0  0  0  0  0
    0.0000    0.0000    0.0000 C   0  0  0  0  0  0  0  0  0  0  0  0
    0.0000    0.0000    0.0000 C   0  0  0  0  0  0  0  0  0  0  0  0
    0.0000    0.0000    0.0000 F   0  0  0  0  0  0  0  0  0  0  0  0
    0.0000    0.0000    0.0000 F   0  0  0  0  0  0  0  0  0  0  0  0
    0.0000    0.0000    0.0000 F   0  0  0  0  0  0  0  0  0  0  0  0
  1  2  1  0
  2  3  2  0
  3  4  1  0
  4  5  2  0
  5  6  1  0
  6  7  2  0
  7  8  1  0
  8  9  3  0
  9 10  1  0
 10 11  2  0
 11 12  1  0
 12 13  2  0
 13 14  1  0
 14 15  2  0
 15 16  1  0
 16 17  2  0
 17 18  1  0
  5 19  1  0
 19 20  2  0
 19 21  1  0
 21 22  1  0
 22 23  2  0
 23 24  1  0
 24 25  2  0
 25 26  1  0
 26 27  1  0
 27 28  1  0
 28 29  1  0
 29 30  1  0
 30 31  1  0
 31 32  1  0
 32 33  1  0
 30 34  1  0
 34 35  1  0
 25 36  1  0
 36 37  2  0
 36 38  1  0
 38 39  1  0
 38 40  1  0
 38 41  1  0
  7  2  1  0
 18 10  1  0
 18 13  1  0
 37 22  1  0
 35 27  1  0
M  END
>  <pIC50>  (286) 
7.72

>  <ChEMBL_ID>  (286) 
CHEMBL1171044

>  <document_journal>  (286) 
J. Med. Chem.

>  <bao_endpoint>  (286) 
BAO_0000190

>  <potential_duplicate>  (286) 
False

>  <uo_units>  (286) 
UO_0000065

>  <canonical_smiles>  (286) 
Cc1ccc(cc1C#Cc2cnc3ccccn23)C(=O)Nc4ccc(CN5CCN(CCO)CC5)c(c4)C(F)(F)F

>  <parent_molecule_chembl_id>  (286) 
CHEMBL1171044

>  <assay_type>  (286) 
B

>  <src_id>  (286) 
1

>  <ligand_efficiency>  (286) 
{u'le': u'0.26', u'bei': u'13.75', u'sei': u'10.56', u'lle': u'2.91'}

>  <standard_flag>  (286) 
True

>  <molecule_chembl_id>  (286) 
CHEMBL1171044

>  <target_organism>  (286) 
Homo sapiens

>  <standard_units>  (286) 
nM

>  <record_id>  (286) 
923953

>  <document_chembl_id>  (286) 
CHEMBL1177713

>  <bao_format>  (286) 
BAO_0000357

>  <data_validity_description>  (286) 
None

>  <activity_id>  (286) 
3360188

>  <standard_type>  (286) 
IC50

>  <target_chembl_id>  (286) 
CHEMBL1862

>  <data_validity_comment>  (286) 
None

>  <published_value>  (286) 
19

>  <document_year>  (286) 
2010

>  <target_pref_name>  (286) 
Tyrosine-protein kinase ABL

>  <assay_chembl_id>  (286) 
CHEMBL1176860

>  <standard_relation>  (286) 
=

>  <assay_description>  (286) 
Inhibition of wild type human ABL after 1 hr by TR-FRET assay

>  <published_relation>  (286) 
=

>  <standard_value>  (286) 
19

>  <qudt_units>  (286) 
http://www.openphacts.org/units/Nanomolar

>  <target_tax_id>  (286) 
9606

>  <bao_label>  (286) 
single protein format

>  <published_units>  (286) 
nM

>  <pchembl_value>  (286) 
7.72

>  <published_type>  (286) 
IC50

>  <activity_comment>  (286) 
None

$$$$

     RDKit          

 41 45  0  0  0  0  0  0  0  0999 V2000
    0.0000    0.0000    0.0000 C   0  0  0  0  0  0  0  0  0  0  0  0
    0.0000    0.0000    0.0000 C   0  0  0  0  0  0  0  0  0  0  0  0
    0.0000    0.0000    0.0000 C   0  0  0  0  0  0  0  0  0  0  0  0
    0.0000    0.0000    0.0000 C   0  0  0  0  0  0  0  0  0  0  0  0
    0.0000    0.0000    0.0000 C   0  0  0  0  0  0  0  0  0  0  0  0
    0.0000    0.0000    0.0000 C   0  0  0  0  0  0  0  0  0  0  0  0
    0.0000    0.0000    0.0000 C   0  0  0  0  0  0  0  0  0  0  0  0
    0.0000    0.0000    0.0000 C   0  0  0  0  0  0  0  0  0  0  0  0
    0.0000    0.0000    0.0000 C   0  0  0  0  0  0  0  0  0  0  0  0
    0.0000    0.0000    0.0000 C   0  0  0  0  0  0  0  0  0  0  0  0
    0.0000    0.0000    0.0000 C   0  0  0  0  0  0  0  0  0  0  0  0
    0.0000    0.0000    0.0000 N   0  0  0  0  0  0  0  0  0  0  0  0
    0.0000    0.0000    0.0000 C   0  0  0  0  0  0  0  0  0  0  0  0
    0.0000    0.0000    0.0000 C   0  0  0  0  0  0  0  0  0  0  0  0
    0.0000    0.0000    0.0000 C   0  0  0  0  0  0  0  0  0  0  0  0
    0.0000    0.0000    0.0000 C   0  0  0  0  0  0  0  0  0  0  0  0
    0.0000    0.0000    0.0000 C   0  0  0  0  0  0  0  0  0  0  0  0
    0.0000    0.0000    0.0000 N   0  0  0  0  0  0  0  0  0  0  0  0
    0.0000    0.0000    0.0000 C   0  0  0  0  0  0  0  0  0  0  0  0
    0.0000    0.0000    0.0000 O   0  0  0  0  0  0  0  0  0  0  0  0
    0.0000    0.0000    0.0000 N   0  0  0  0  0  0  0  0  0  0  0  0
    0.0000    0.0000    0.0000 C   0  0  0  0  0  0  0  0  0  0  0  0
    0.0000    0.0000    0.0000 C   0  0  0  0  0  0  0  0  0  0  0  0
    0.0000    0.0000    0.0000 C   0  0  0  0  0  0  0  0  0  0  0  0
    0.0000    0.0000    0.0000 C   0  0  0  0  0  0  0  0  0  0  0  0
    0.0000    0.0000    0.0000 C   0  0  0  0  0  0  0  0  0  0  0  0
    0.0000    0.0000    0.0000 N   0  0  0  0  0  0  0  0  0  0  0  0
    0.0000    0.0000    0.0000 C   0  0  0  0  0  0  0  0  0  0  0  0
    0.0000    0.0000    0.0000 C   0  0  0  0  0  0  0  0  0  0  0  0
    0.0000    0.0000    0.0000 N   0  0  0  0  0  0  0  0  0  0  0  0
    0.0000    0.0000    0.0000 C   0  0  0  0  0  0  0  0  0  0  0  0
    0.0000    0.0000    0.0000 C   0  0  0  0  0  0  0  0  0  0  0  0
    0.0000    0.0000    0.0000 F   0  0  0  0  0  0  0  0  0  0  0  0
    0.0000    0.0000    0.0000 C   0  0  0  0  0  0  0  0  0  0  0  0
    0.0000    0.0000    0.0000 C   0  0  0  0  0  0  0  0  0  0  0  0
    0.0000    0.0000    0.0000 C   0  0  0  0  0  0  0  0  0  0  0  0
    0.0000    0.0000    0.0000 C   0  0  0  0  0  0  0  0  0  0  0  0
    0.0000    0.0000    0.0000 C   0  0  0  0  0  0  0  0  0  0  0  0
    0.0000    0.0000    0.0000 F   0  0  0  0  0  0  0  0  0  0  0  0
    0.0000    0.0000    0.0000 F   0  0  0  0  0  0  0  0  0  0  0  0
    0.0000    0.0000    0.0000 F   0  0  0  0  0  0  0  0  0  0  0  0
  1  2  1  0
  2  3  2  0
  3  4  1  0
  4  5  2  0
  5  6  1  0
  6  7  2  0
  7  8  1  0
  8  9  3  0
  9 10  1  0
 10 11  2  0
 11 12  1  0
 12 13  2  0
 13 14  1  0
 14 15  2  0
 15 16  1  0
 16 17  2  0
 17 18  1  0
  5 19  1  0
 19 20  2  0
 19 21  1  0
 21 22  1  0
 22 23  2  0
 23 24  1  0
 24 25  2  0
 25 26  1  0
 26 27  1  0
 27 28  1  0
 28 29  1  0
 29 30  1  0
 30 31  1  0
 31 32  1  0
 32 33  1  0
 30 34  1  0
 34 35  1  0
 25 36  1  0
 36 37  2  0
 36 38  1  0
 38 39  1  0
 38 40  1  0
 38 41  1  0
  7  2  1  0
 18 10  1  0
 18 13  1  0
 37 22  1  0
 35 27  1  0
M  END
>  <pIC50>  (287) 
7.31

>  <ChEMBL_ID>  (287) 
CHEMBL1171045

>  <document_journal>  (287) 
J. Med. Chem.

>  <bao_endpoint>  (287) 
BAO_0000190

>  <potential_duplicate>  (287) 
False

>  <uo_units>  (287) 
UO_0000065

>  <canonical_smiles>  (287) 
Cc1ccc(cc1C#Cc2cnc3ccccn23)C(=O)Nc4ccc(CN5CCN(CCF)CC5)c(c4)C(F)(F)F

>  <parent_molecule_chembl_id>  (287) 
CHEMBL1171045

>  <assay_type>  (287) 
B

>  <src_id>  (287) 
1

>  <ligand_efficiency>  (287) 
{u'le': u'0.24', u'bei': u'12.97', u'sei': u'13.82', u'lle': u'1.56'}

>  <standard_flag>  (287) 
True

>  <molecule_chembl_id>  (287) 
CHEMBL1171045

>  <target_organism>  (287) 
Homo sapiens

>  <standard_units>  (287) 
nM

>  <record_id>  (287) 
923954

>  <document_chembl_id>  (287) 
CHEMBL1177713

>  <bao_format>  (287) 
BAO_0000357

>  <data_validity_description>  (287) 
None

>  <activity_id>  (287) 
3360189

>  <standard_type>  (287) 
IC50

>  <target_chembl_id>  (287) 
CHEMBL1862

>  <data_validity_comment>  (287) 
None

>  <published_value>  (287) 
49

>  <document_year>  (287) 
2010

>  <target_pref_name>  (287) 
Tyrosine-protein kinase ABL

>  <assay_chembl_id>  (287) 
CHEMBL1176860

>  <standard_relation>  (287) 
=

>  <assay_description>  (287) 
Inhibition of wild type human ABL after 1 hr by TR-FRET assay

>  <published_relation>  (287) 
=

>  <standard_value>  (287) 
49

>  <qudt_units>  (287) 
http://www.openphacts.org/units/Nanomolar

>  <target_tax_id>  (287) 
9606

>  <bao_label>  (287) 
single protein format

>  <published_units>  (287) 
nM

>  <pchembl_value>  (287) 
7.31

>  <published_type>  (287) 
IC50

>  <activity_comment>  (287) 
None

$$$$

     RDKit          

 38 42  0  0  0  0  0  0  0  0999 V2000
    0.0000    0.0000    0.0000 C   0  0  0  0  0  0  0  0  0  0  0  0
    0.0000    0.0000    0.0000 C   0  0  0  0  0  0  0  0  0  0  0  0
    0.0000    0.0000    0.0000 C   0  0  0  0  0  0  0  0  0  0  0  0
    0.0000    0.0000    0.0000 C   0  0  0  0  0  0  0  0  0  0  0  0
    0.0000    0.0000    0.0000 C   0  0  0  0  0  0  0  0  0  0  0  0
    0.0000    0.0000    0.0000 C   0  0  0  0  0  0  0  0  0  0  0  0
    0.0000    0.0000    0.0000 C   0  0  0  0  0  0  0  0  0  0  0  0
    0.0000    0.0000    0.0000 C   0  0  0  0  0  0  0  0  0  0  0  0
    0.0000    0.0000    0.0000 C   0  0  0  0  0  0  0  0  0  0  0  0
    0.0000    0.0000    0.0000 C   0  0  0  0  0  0  0  0  0  0  0  0
    0.0000    0.0000    0.0000 C   0  0  0  0  0  0  0  0  0  0  0  0
    0.0000    0.0000    0.0000 N   0  0  0  0  0  0  0  0  0  0  0  0
    0.0000    0.0000    0.0000 C   0  0  0  0  0  0  0  0  0  0  0  0
    0.0000    0.0000    0.0000 C   0  0  0  0  0  0  0  0  0  0  0  0
    0.0000    0.0000    0.0000 C   0  0  0  0  0  0  0  0  0  0  0  0
    0.0000    0.0000    0.0000 C   0  0  0  0  0  0  0  0  0  0  0  0
    0.0000    0.0000    0.0000 C   0  0  0  0  0  0  0  0  0  0  0  0
    0.0000    0.0000    0.0000 N   0  0  0  0  0  0  0  0  0  0  0  0
    0.0000    0.0000    0.0000 C   0  0  0  0  0  0  0  0  0  0  0  0
    0.0000    0.0000    0.0000 O   0  0  0  0  0  0  0  0  0  0  0  0
    0.0000    0.0000    0.0000 N   0  0  0  0  0  0  0  0  0  0  0  0
    0.0000    0.0000    0.0000 C   0  0  0  0  0  0  0  0  0  0  0  0
    0.0000    0.0000    0.0000 C   0  0  0  0  0  0  0  0  0  0  0  0
    0.0000    0.0000    0.0000 C   0  0  0  0  0  0  0  0  0  0  0  0
    0.0000    0.0000    0.0000 C   0  0  0  0  0  0  0  0  0  0  0  0
    0.0000    0.0000    0.0000 C   0  0  0  0  0  0  0  0  0  0  0  0
    0.0000    0.0000    0.0000 N   0  0  0  0  0  0  0  0  0  0  0  0
    0.0000    0.0000    0.0000 C   0  0  0  0  0  0  0  0  0  0  0  0
    0.0000    0.0000    0.0000 C   0  0  0  0  0  0  0  0  0  0  0  0
    0.0000    0.0000    0.0000 N   0  0  0  0  0  0  0  0  0  0  0  0
    0.0000    0.0000    0.0000 C   0  0  0  0  0  0  0  0  0  0  0  0
    0.0000    0.0000    0.0000 C   0  0  0  0  0  0  0  0  0  0  0  0
    0.0000    0.0000    0.0000 C   0  0  0  0  0  0  0  0  0  0  0  0
    0.0000    0.0000    0.0000 C   0  0  0  0  0  0  0  0  0  0  0  0
    0.0000    0.0000    0.0000 C   0  0  0  0  0  0  0  0  0  0  0  0
    0.0000    0.0000    0.0000 F   0  0  0  0  0  0  0  0  0  0  0  0
    0.0000    0.0000    0.0000 F   0  0  0  0  0  0  0  0  0  0  0  0
    0.0000    0.0000    0.0000 F   0  0  0  0  0  0  0  0  0  0  0  0
  1  2  1  0
  2  3  2  0
  3  4  1  0
  4  5  2  0
  5  6  1  0
  6  7  2  0
  7  8  1  0
  8  9  3  0
  9 10  1  0
 10 11  2  0
 11 12  1  0
 12 13  2  0
 13 14  1  0
 14 15  2  0
 15 16  1  0
 16 17  2  0
 17 18  1  0
  5 19  1  0
 19 20  2  0
 19 21  1  0
 21 22  1  0
 22 23  2  0
 23 24  1  0
 24 25  2  0
 25 26  1  0
 26 27  1  0
 27 28  1  0
 28 29  1  0
 29 30  1  0
 30 31  1  0
 31 32  1  0
 25 33  1  0
 33 34  2  0
 33 35  1  0
 35 36  1  0
 35 37  1  0
 35 38  1  0
  7  2  1  0
 18 10  1  0
 18 13  1  0
 34 22  1  0
 32 27  1  0
M  END
>  <pIC50>  (288) 
7.85

>  <ChEMBL_ID>  (288) 
CHEMBL1170077

>  <document_journal>  (288) 
J. Med. Chem.

>  <bao_endpoint>  (288) 
BAO_0000190

>  <potential_duplicate>  (288) 
False

>  <uo_units>  (288) 
UO_0000065

>  <canonical_smiles>  (288) 
Cc1ccc(cc1C#Cc2cnc3ccccn23)C(=O)Nc4ccc(CN5CCNCC5)c(c4)C(F)(F)F

>  <parent_molecule_chembl_id>  (288) 
CHEMBL1170077

>  <assay_type>  (288) 
B

>  <src_id>  (288) 
1

>  <ligand_efficiency>  (288) 
{u'le': u'0.28', u'bei': u'15.18', u'sei': u'12.74', u'lle': u'3.03'}

>  <standard_flag>  (288) 
True

>  <molecule_chembl_id>  (288) 
CHEMBL1170077

>  <target_organism>  (288) 
Homo sapiens

>  <standard_units>  (288) 
nM

>  <record_id>  (288) 
924022

>  <document_chembl_id>  (288) 
CHEMBL1177713

>  <bao_format>  (288) 
BAO_0000357

>  <data_validity_description>  (288) 
None

>  <activity_id>  (288) 
3360190

>  <standard_type>  (288) 
IC50

>  <target_chembl_id>  (288) 
CHEMBL1862

>  <data_validity_comment>  (288) 
None

>  <published_value>  (288) 
14

>  <document_year>  (288) 
2010

>  <target_pref_name>  (288) 
Tyrosine-protein kinase ABL

>  <assay_chembl_id>  (288) 
CHEMBL1176860

>  <standard_relation>  (288) 
=

>  <assay_description>  (288) 
Inhibition of wild type human ABL after 1 hr by TR-FRET assay

>  <published_relation>  (288) 
=

>  <standard_value>  (288) 
14

>  <qudt_units>  (288) 
http://www.openphacts.org/units/Nanomolar

>  <target_tax_id>  (288) 
9606

>  <bao_label>  (288) 
single protein format

>  <published_units>  (288) 
nM

>  <pchembl_value>  (288) 
7.85

>  <published_type>  (288) 
IC50

>  <activity_comment>  (288) 
None

$$$$

     RDKit          

 39 43  0  0  0  0  0  0  0  0999 V2000
    0.0000    0.0000    0.0000 C   0  0  0  0  0  0  0  0  0  0  0  0
    0.0000    0.0000    0.0000 C   0  0  0  0  0  0  0  0  0  0  0  0
    0.0000    0.0000    0.0000 C   0  0  0  0  0  0  0  0  0  0  0  0
    0.0000    0.0000    0.0000 N   0  0  0  0  0  0  0  0  0  0  0  0
    0.0000    0.0000    0.0000 C   0  0  0  0  0  0  0  0  0  0  0  0
    0.0000    0.0000    0.0000 C   0  0  0  0  0  0  0  0  0  0  0  0
    0.0000    0.0000    0.0000 C   0  0  0  0  0  0  0  0  0  0  0  0
    0.0000    0.0000    0.0000 C   0  0  0  0  0  0  0  0  0  0  0  0
    0.0000    0.0000    0.0000 C   0  0  0  0  0  0  0  0  0  0  0  0
    0.0000    0.0000    0.0000 N   0  0  0  0  0  0  0  0  0  0  0  0
    0.0000    0.0000    0.0000 C   0  0  0  0  0  0  0  0  0  0  0  0
    0.0000    0.0000    0.0000 O   0  0  0  0  0  0  0  0  0  0  0  0
    0.0000    0.0000    0.0000 C   0  0  0  0  0  0  0  0  0  0  0  0
    0.0000    0.0000    0.0000 C   0  0  0  0  0  0  0  0  0  0  0  0
    0.0000    0.0000    0.0000 C   0  0  0  0  0  0  0  0  0  0  0  0
    0.0000    0.0000    0.0000 C   0  0  0  0  0  0  0  0  0  0  0  0
    0.0000    0.0000    0.0000 C   0  0  0  0  0  0  0  0  0  0  0  0
    0.0000    0.0000    0.0000 C   0  0  0  0  0  0  0  0  0  0  0  0
    0.0000    0.0000    0.0000 C   0  0  0  0  0  0  0  0  0  0  0  0
    0.0000    0.0000    0.0000 C   0  0  0  0  0  0  0  0  0  0  0  0
    0.0000    0.0000    0.0000 C   0  0  0  0  0  0  0  0  0  0  0  0
    0.0000    0.0000    0.0000 C   0  0  0  0  0  0  0  0  0  0  0  0
    0.0000    0.0000    0.0000 C   0  0  0  0  0  0  0  0  0  0  0  0
    0.0000    0.0000    0.0000 N   0  0  0  0  0  0  0  0  0  0  0  0
    0.0000    0.0000    0.0000 C   0  0  0  0  0  0  0  0  0  0  0  0
    0.0000    0.0000    0.0000 C   0  0  0  0  0  0  0  0  0  0  0  0
    0.0000    0.0000    0.0000 C   0  0  0  0  0  0  0  0  0  0  0  0
    0.0000    0.0000    0.0000 C   0  0  0  0  0  0  0  0  0  0  0  0
    0.0000    0.0000    0.0000 C   0  0  0  0  0  0  0  0  0  0  0  0
    0.0000    0.0000    0.0000 N   0  0  0  0  0  0  0  0  0  0  0  0
    0.0000    0.0000    0.0000 C   0  0  0  0  0  0  0  0  0  0  0  0
    0.0000    0.0000    0.0000 C   0  0  0  0  0  0  0  0  0  0  0  0
    0.0000    0.0000    0.0000 C   0  0  0  0  0  0  0  0  0  0  0  0
    0.0000    0.0000    0.0000 F   0  0  0  0  0  0  0  0  0  0  0  0
    0.0000    0.0000    0.0000 F   0  0  0  0  0  0  0  0  0  0  0  0
    0.0000    0.0000    0.0000 F   0  0  0  0  0  0  0  0  0  0  0  0
    0.0000    0.0000    0.0000 C   0  0  0  0  0  0  0  0  0  0  0  0
    0.0000    0.0000    0.0000 C   0  0  0  0  0  0  0  0  0  0  0  0
    0.0000    0.0000    0.0000 N   0  0  0  0  0  0  0  0  0  0  0  0
  1  2  1  0
  2  3  1  0
  3  4  1  0
  4  5  1  0
  5  6  1  0
  6  7  2  0
  7  8  1  0
  8  9  2  0
  9 10  1  0
 10 11  1  0
 11 12  2  0
 11 13  1  0
 13 14  2  0
 14 15  1  0
 15 16  2  0
 16 17  1  0
 16 18  1  0
 18 19  2  0
 18 20  1  0
 20 21  3  0
 21 22  1  0
 22 23  2  0
 23 24  1  0
 24 25  2  0
 25 26  1  0
 26 27  2  0
 27 28  1  0
 28 29  2  0
 29 30  1  0
  9 31  1  0
 31 32  2  0
 32 33  1  0
 33 34  1  0
 33 35  1  0
 33 36  1  0
  4 37  1  0
 37 38  1  0
 38 39  1  0
 39  2  1  0
 32  6  1  0
 19 13  1  0
 30 22  1  0
 30 25  1  0
M  END
>  <pIC50>  (289) 
7.66

>  <ChEMBL_ID>  (289) 
CHEMBL1170078

>  <document_journal>  (289) 
J. Med. Chem.

>  <bao_endpoint>  (289) 
BAO_0000190

>  <potential_duplicate>  (289) 
False

>  <uo_units>  (289) 
UO_0000065

>  <canonical_smiles>  (289) 
CC1CN(Cc2ccc(NC(=O)c3ccc(C)c(c3)C#Cc4cnc5ccccn45)cc2C(F)(F)F)CCN1

>  <parent_molecule_chembl_id>  (289) 
CHEMBL1170078

>  <assay_type>  (289) 
B

>  <src_id>  (289) 
1

>  <ligand_efficiency>  (289) 
{u'le': u'0.27', u'bei': u'14.41', u'sei': u'12.42', u'lle': u'2.47'}

>  <standard_flag>  (289) 
True

>  <molecule_chembl_id>  (289) 
CHEMBL1170078

>  <target_organism>  (289) 
Homo sapiens

>  <standard_units>  (289) 
nM

>  <record_id>  (289) 
924023

>  <document_chembl_id>  (289) 
CHEMBL1177713

>  <bao_format>  (289) 
BAO_0000357

>  <data_validity_description>  (289) 
None

>  <activity_id>  (289) 
3360191

>  <standard_type>  (289) 
IC50

>  <target_chembl_id>  (289) 
CHEMBL1862

>  <data_validity_comment>  (289) 
None

>  <published_value>  (289) 
22

>  <document_year>  (289) 
2010

>  <target_pref_name>  (289) 
Tyrosine-protein kinase ABL

>  <assay_chembl_id>  (289) 
CHEMBL1176860

>  <standard_relation>  (289) 
=

>  <assay_description>  (289) 
Inhibition of wild type human ABL after 1 hr by TR-FRET assay

>  <published_relation>  (289) 
=

>  <standard_value>  (289) 
22

>  <qudt_units>  (289) 
http://www.openphacts.org/units/Nanomolar

>  <target_tax_id>  (289) 
9606

>  <bao_label>  (289) 
single protein format

>  <published_units>  (289) 
nM

>  <pchembl_value>  (289) 
7.66

>  <published_type>  (289) 
IC50

>  <activity_comment>  (289) 
None

$$$$

     RDKit          

 39 43  0  0  0  0  0  0  0  0999 V2000
    0.0000    0.0000    0.0000 C   0  0  0  0  0  0  0  0  0  0  0  0
    0.0000    0.0000    0.0000 N   0  0  0  0  0  0  0  0  0  0  0  0
    0.0000    0.0000    0.0000 C   0  0  0  0  0  0  0  0  0  0  0  0
    0.0000    0.0000    0.0000 C   0  0  0  0  0  0  0  0  0  0  0  0
    0.0000    0.0000    0.0000 N   0  0  0  0  0  0  0  0  0  0  0  0
    0.0000    0.0000    0.0000 C   0  0  0  0  0  0  0  0  0  0  0  0
    0.0000    0.0000    0.0000 C   0  0  0  0  0  0  0  0  0  0  0  0
    0.0000    0.0000    0.0000 C   0  0  0  0  0  0  0  0  0  0  0  0
    0.0000    0.0000    0.0000 C   0  0  0  0  0  0  0  0  0  0  0  0
    0.0000    0.0000    0.0000 C   0  0  0  0  0  0  0  0  0  0  0  0
    0.0000    0.0000    0.0000 N   0  0  0  0  0  0  0  0  0  0  0  0
    0.0000    0.0000    0.0000 C   0  0  0  0  0  0  0  0  0  0  0  0
    0.0000    0.0000    0.0000 O   0  0  0  0  0  0  0  0  0  0  0  0
    0.0000    0.0000    0.0000 C   0  0  0  0  0  0  0  0  0  0  0  0
    0.0000    0.0000    0.0000 C   0  0  0  0  0  0  0  0  0  0  0  0
    0.0000    0.0000    0.0000 C   0  0  0  0  0  0  0  0  0  0  0  0
    0.0000    0.0000    0.0000 C   0  0  0  0  0  0  0  0  0  0  0  0
    0.0000    0.0000    0.0000 C   0  0  0  0  0  0  0  0  0  0  0  0
    0.0000    0.0000    0.0000 C   0  0  0  0  0  0  0  0  0  0  0  0
    0.0000    0.0000    0.0000 C   0  0  0  0  0  0  0  0  0  0  0  0
    0.0000    0.0000    0.0000 C   0  0  0  0  0  0  0  0  0  0  0  0
    0.0000    0.0000    0.0000 C   0  0  0  0  0  0  0  0  0  0  0  0
    0.0000    0.0000    0.0000 C   0  0  0  0  0  0  0  0  0  0  0  0
    0.0000    0.0000    0.0000 C   0  0  0  0  0  0  0  0  0  0  0  0
    0.0000    0.0000    0.0000 N   0  0  0  0  0  0  0  0  0  0  0  0
    0.0000    0.0000    0.0000 C   0  0  0  0  0  0  0  0  0  0  0  0
    0.0000    0.0000    0.0000 N   0  0  0  0  0  0  0  0  0  0  0  0
    0.0000    0.0000    0.0000 C   0  0  0  0  0  0  0  0  0  0  0  0
    0.0000    0.0000    0.0000 C   0  0  0  0  0  0  0  0  0  0  0  0
    0.0000    0.0000    0.0000 C   0  0  0  0  0  0  0  0  0  0  0  0
    0.0000    0.0000    0.0000 C   0  0  0  0  0  0  0  0  0  0  0  0
    0.0000    0.0000    0.0000 C   0  0  0  0  0  0  0  0  0  0  0  0
    0.0000    0.0000    0.0000 C   0  0  0  0  0  0  0  0  0  0  0  0
    0.0000    0.0000    0.0000 C   0  0  0  0  0  0  0  0  0  0  0  0
    0.0000    0.0000    0.0000 F   0  0  0  0  0  0  0  0  0  0  0  0
    0.0000    0.0000    0.0000 F   0  0  0  0  0  0  0  0  0  0  0  0
    0.0000    0.0000    0.0000 F   0  0  0  0  0  0  0  0  0  0  0  0
    0.0000    0.0000    0.0000 C   0  0  0  0  0  0  0  0  0  0  0  0
    0.0000    0.0000    0.0000 C   0  0  0  0  0  0  0  0  0  0  0  0
  1  2  1  0
  2  3  1  0
  3  4  1  0
  4  5  1  0
  5  6  1  0
  6  7  1  0
  7  8  2  0
  8  9  1  0
  9 10  2  0
 10 11  1  0
 11 12  1  0
 12 13  2  0
 12 14  1  0
 14 15  2  0
 15 16  1  0
 16 17  2  0
 17 18  1  0
 17 19  1  0
 19 20  2  0
 19 21  1  0
 21 22  3  0
 22 23  1  0
 23 24  2  0
 24 25  1  0
 25 26  2  0
 26 27  1  0
 27 28  1  0
 28 29  2  0
 29 30  1  0
 30 31  2  0
 10 32  1  0
 32 33  2  0
 33 34  1  0
 34 35  1  0
 34 36  1  0
 34 37  1  0
  5 38  1  0
 38 39  1  0
 39  2  1  0
 33  7  1  0
 20 14  1  0
 31 23  1  0
 30 26  1  0
M  END
>  <pIC50>  (290) 
7.72

>  <ChEMBL_ID>  (290) 
CHEMBL1171479

>  <document_journal>  (290) 
J. Med. Chem.

>  <bao_endpoint>  (290) 
BAO_0000190

>  <potential_duplicate>  (290) 
False

>  <uo_units>  (290) 
UO_0000065

>  <canonical_smiles>  (290) 
CN1CCN(Cc2ccc(NC(=O)c3ccc(C)c(c3)C#Cc4cnc5[nH]ccc5c4)cc2C(F)(F)F)CC1

>  <parent_molecule_chembl_id>  (290) 
CHEMBL1171479

>  <assay_type>  (290) 
B

>  <src_id>  (290) 
1

>  <ligand_efficiency>  (290) 
{u'le': u'0.27', u'bei': u'14.53', u'sei': u'12.02', u'lle': u'2.2'}

>  <standard_flag>  (290) 
True

>  <molecule_chembl_id>  (290) 
CHEMBL1171479

>  <target_organism>  (290) 
Homo sapiens

>  <standard_units>  (290) 
nM

>  <record_id>  (290) 
924024

>  <document_chembl_id>  (290) 
CHEMBL1177713

>  <bao_format>  (290) 
BAO_0000357

>  <data_validity_description>  (290) 
None

>  <activity_id>  (290) 
3360192

>  <standard_type>  (290) 
IC50

>  <target_chembl_id>  (290) 
CHEMBL1862

>  <data_validity_comment>  (290) 
None

>  <published_value>  (290) 
19

>  <document_year>  (290) 
2010

>  <target_pref_name>  (290) 
Tyrosine-protein kinase ABL

>  <assay_chembl_id>  (290) 
CHEMBL1176860

>  <standard_relation>  (290) 
=

>  <assay_description>  (290) 
Inhibition of wild type human ABL after 1 hr by TR-FRET assay

>  <published_relation>  (290) 
=

>  <standard_value>  (290) 
19

>  <qudt_units>  (290) 
http://www.openphacts.org/units/Nanomolar

>  <target_tax_id>  (290) 
9606

>  <bao_label>  (290) 
single protein format

>  <published_units>  (290) 
nM

>  <pchembl_value>  (290) 
7.72

>  <published_type>  (290) 
IC50

>  <activity_comment>  (290) 
None

$$$$

     RDKit          

 39 43  0  0  0  0  0  0  0  0999 V2000
    0.0000    0.0000    0.0000 C   0  0  0  0  0  0  0  0  0  0  0  0
    0.0000    0.0000    0.0000 N   0  0  0  0  0  0  0  0  0  0  0  0
    0.0000    0.0000    0.0000 C   0  0  0  0  0  0  0  0  0  0  0  0
    0.0000    0.0000    0.0000 C   0  0  0  0  0  0  0  0  0  0  0  0
    0.0000    0.0000    0.0000 N   0  0  0  0  0  0  0  0  0  0  0  0
    0.0000    0.0000    0.0000 C   0  0  0  0  0  0  0  0  0  0  0  0
    0.0000    0.0000    0.0000 C   0  0  0  0  0  0  0  0  0  0  0  0
    0.0000    0.0000    0.0000 C   0  0  0  0  0  0  0  0  0  0  0  0
    0.0000    0.0000    0.0000 C   0  0  0  0  0  0  0  0  0  0  0  0
    0.0000    0.0000    0.0000 C   0  0  0  0  0  0  0  0  0  0  0  0
    0.0000    0.0000    0.0000 N   0  0  0  0  0  0  0  0  0  0  0  0
    0.0000    0.0000    0.0000 C   0  0  0  0  0  0  0  0  0  0  0  0
    0.0000    0.0000    0.0000 O   0  0  0  0  0  0  0  0  0  0  0  0
    0.0000    0.0000    0.0000 C   0  0  0  0  0  0  0  0  0  0  0  0
    0.0000    0.0000    0.0000 C   0  0  0  0  0  0  0  0  0  0  0  0
    0.0000    0.0000    0.0000 C   0  0  0  0  0  0  0  0  0  0  0  0
    0.0000    0.0000    0.0000 C   0  0  0  0  0  0  0  0  0  0  0  0
    0.0000    0.0000    0.0000 C   0  0  0  0  0  0  0  0  0  0  0  0
    0.0000    0.0000    0.0000 C   0  0  0  0  0  0  0  0  0  0  0  0
    0.0000    0.0000    0.0000 C   0  0  0  0  0  0  0  0  0  0  0  0
    0.0000    0.0000    0.0000 C   0  0  0  0  0  0  0  0  0  0  0  0
    0.0000    0.0000    0.0000 C   0  0  0  0  0  0  0  0  0  0  0  0
    0.0000    0.0000    0.0000 C   0  0  0  0  0  0  0  0  0  0  0  0
    0.0000    0.0000    0.0000 C   0  0  0  0  0  0  0  0  0  0  0  0
    0.0000    0.0000    0.0000 N   0  0  0  0  0  0  0  0  0  0  0  0
    0.0000    0.0000    0.0000 C   0  0  0  0  0  0  0  0  0  0  0  0
    0.0000    0.0000    0.0000 N   0  0  0  0  0  0  0  0  0  0  0  0
    0.0000    0.0000    0.0000 C   0  0  0  0  0  0  0  0  0  0  0  0
    0.0000    0.0000    0.0000 N   0  0  0  0  0  0  0  0  0  0  0  0
    0.0000    0.0000    0.0000 C   0  0  0  0  0  0  0  0  0  0  0  0
    0.0000    0.0000    0.0000 C   0  0  0  0  0  0  0  0  0  0  0  0
    0.0000    0.0000    0.0000 C   0  0  0  0  0  0  0  0  0  0  0  0
    0.0000    0.0000    0.0000 C   0  0  0  0  0  0  0  0  0  0  0  0
    0.0000    0.0000    0.0000 C   0  0  0  0  0  0  0  0  0  0  0  0
    0.0000    0.0000    0.0000 F   0  0  0  0  0  0  0  0  0  0  0  0
    0.0000    0.0000    0.0000 F   0  0  0  0  0  0  0  0  0  0  0  0
    0.0000    0.0000    0.0000 F   0  0  0  0  0  0  0  0  0  0  0  0
    0.0000    0.0000    0.0000 C   0  0  0  0  0  0  0  0  0  0  0  0
    0.0000    0.0000    0.0000 C   0  0  0  0  0  0  0  0  0  0  0  0
  1  2  1  0
  2  3  1  0
  3  4  1  0
  4  5  1  0
  5  6  1  0
  6  7  1  0
  7  8  2  0
  8  9  1  0
  9 10  2  0
 10 11  1  0
 11 12  1  0
 12 13  2  0
 12 14  1  0
 14 15  2  0
 15 16  1  0
 16 17  2  0
 17 18  1  0
 17 19  1  0
 19 20  2  0
 19 21  1  0
 21 22  3  0
 22 23  1  0
 23 24  2  0
 24 25  1  0
 25 26  2  0
 26 27  1  0
 27 28  1  0
 28 29  2  0
 29 30  1  0
 30 31  2  0
 10 32  1  0
 32 33  2  0
 33 34  1  0
 34 35  1  0
 34 36  1  0
 34 37  1  0
  5 38  1  0
 38 39  1  0
 39  2  1  0
 33  7  1  0
 20 14  1  0
 31 23  1  0
 30 26  1  0
M  END
>  <pIC50>  (291) 
7.75

>  <ChEMBL_ID>  (291) 
CHEMBL1171657

>  <document_journal>  (291) 
J. Med. Chem.

>  <bao_endpoint>  (291) 
BAO_0000190

>  <potential_duplicate>  (291) 
False

>  <uo_units>  (291) 
UO_0000065

>  <canonical_smiles>  (291) 
CN1CCN(Cc2ccc(NC(=O)c3ccc(C)c(c3)C#Cc4cnc5[nH]cnc5c4)cc2C(F)(F)F)CC1

>  <parent_molecule_chembl_id>  (291) 
CHEMBL1171657

>  <assay_type>  (291) 
B

>  <src_id>  (291) 
1

>  <ligand_efficiency>  (291) 
{u'le': u'0.27', u'bei': u'14.54', u'sei': u'10.04', u'lle': u'2.99'}

>  <standard_flag>  (291) 
True

>  <molecule_chembl_id>  (291) 
CHEMBL1171657

>  <target_organism>  (291) 
Homo sapiens

>  <standard_units>  (291) 
nM

>  <record_id>  (291) 
924113

>  <document_chembl_id>  (291) 
CHEMBL1177713

>  <bao_format>  (291) 
BAO_0000357

>  <data_validity_description>  (291) 
None

>  <activity_id>  (291) 
3360193

>  <standard_type>  (291) 
IC50

>  <target_chembl_id>  (291) 
CHEMBL1862

>  <data_validity_comment>  (291) 
None

>  <published_value>  (291) 
18

>  <document_year>  (291) 
2010

>  <target_pref_name>  (291) 
Tyrosine-protein kinase ABL

>  <assay_chembl_id>  (291) 
CHEMBL1176860

>  <standard_relation>  (291) 
=

>  <assay_description>  (291) 
Inhibition of wild type human ABL after 1 hr by TR-FRET assay

>  <published_relation>  (291) 
=

>  <standard_value>  (291) 
18

>  <qudt_units>  (291) 
http://www.openphacts.org/units/Nanomolar

>  <target_tax_id>  (291) 
9606

>  <bao_label>  (291) 
single protein format

>  <published_units>  (291) 
nM

>  <pchembl_value>  (291) 
7.75

>  <published_type>  (291) 
IC50

>  <activity_comment>  (291) 
None

$$$$

     RDKit          

 40 44  0  0  0  0  0  0  0  0999 V2000
    0.0000    0.0000    0.0000 C   0  0  0  0  0  0  0  0  0  0  0  0
    0.0000    0.0000    0.0000 N   0  0  0  0  0  0  0  0  0  0  0  0
    0.0000    0.0000    0.0000 C   0  0  0  0  0  0  0  0  0  0  0  0
    0.0000    0.0000    0.0000 C   0  0  0  0  0  0  0  0  0  0  0  0
    0.0000    0.0000    0.0000 N   0  0  0  0  0  0  0  0  0  0  0  0
    0.0000    0.0000    0.0000 C   0  0  0  0  0  0  0  0  0  0  0  0
    0.0000    0.0000    0.0000 C   0  0  0  0  0  0  0  0  0  0  0  0
    0.0000    0.0000    0.0000 C   0  0  0  0  0  0  0  0  0  0  0  0
    0.0000    0.0000    0.0000 C   0  0  0  0  0  0  0  0  0  0  0  0
    0.0000    0.0000    0.0000 C   0  0  0  0  0  0  0  0  0  0  0  0
    0.0000    0.0000    0.0000 N   0  0  0  0  0  0  0  0  0  0  0  0
    0.0000    0.0000    0.0000 C   0  0  0  0  0  0  0  0  0  0  0  0
    0.0000    0.0000    0.0000 O   0  0  0  0  0  0  0  0  0  0  0  0
    0.0000    0.0000    0.0000 C   0  0  0  0  0  0  0  0  0  0  0  0
    0.0000    0.0000    0.0000 C   0  0  0  0  0  0  0  0  0  0  0  0
    0.0000    0.0000    0.0000 C   0  0  0  0  0  0  0  0  0  0  0  0
    0.0000    0.0000    0.0000 C   0  0  0  0  0  0  0  0  0  0  0  0
    0.0000    0.0000    0.0000 C   0  0  0  0  0  0  0  0  0  0  0  0
    0.0000    0.0000    0.0000 C   0  0  0  0  0  0  0  0  0  0  0  0
    0.0000    0.0000    0.0000 C   0  0  0  0  0  0  0  0  0  0  0  0
    0.0000    0.0000    0.0000 C   0  0  0  0  0  0  0  0  0  0  0  0
    0.0000    0.0000    0.0000 C   0  0  0  0  0  0  0  0  0  0  0  0
    0.0000    0.0000    0.0000 C   0  0  0  0  0  0  0  0  0  0  0  0
    0.0000    0.0000    0.0000 C   0  0  0  0  0  0  0  0  0  0  0  0
    0.0000    0.0000    0.0000 N   0  0  0  0  0  0  0  0  0  0  0  0
    0.0000    0.0000    0.0000 C   0  0  0  0  0  0  0  0  0  0  0  0
    0.0000    0.0000    0.0000 N   0  0  0  0  0  0  0  0  0  0  0  0
    0.0000    0.0000    0.0000 C   0  0  0  0  0  0  0  0  0  0  0  0
    0.0000    0.0000    0.0000 O   0  0  0  0  0  0  0  0  0  0  0  0
    0.0000    0.0000    0.0000 N   0  0  0  0  0  0  0  0  0  0  0  0
    0.0000    0.0000    0.0000 C   0  0  0  0  0  0  0  0  0  0  0  0
    0.0000    0.0000    0.0000 C   0  0  0  0  0  0  0  0  0  0  0  0
    0.0000    0.0000    0.0000 C   0  0  0  0  0  0  0  0  0  0  0  0
    0.0000    0.0000    0.0000 C   0  0  0  0  0  0  0  0  0  0  0  0
    0.0000    0.0000    0.0000 C   0  0  0  0  0  0  0  0  0  0  0  0
    0.0000    0.0000    0.0000 F   0  0  0  0  0  0  0  0  0  0  0  0
    0.0000    0.0000    0.0000 F   0  0  0  0  0  0  0  0  0  0  0  0
    0.0000    0.0000    0.0000 F   0  0  0  0  0  0  0  0  0  0  0  0
    0.0000    0.0000    0.0000 C   0  0  0  0  0  0  0  0  0  0  0  0
    0.0000    0.0000    0.0000 C   0  0  0  0  0  0  0  0  0  0  0  0
  1  2  1  0
  2  3  1  0
  3  4  1  0
  4  5  1  0
  5  6  1  0
  6  7  1  0
  7  8  2  0
  8  9  1  0
  9 10  2  0
 10 11  1  0
 11 12  1  0
 12 13  2  0
 12 14  1  0
 14 15  2  0
 15 16  1  0
 16 17  2  0
 17 18  1  0
 17 19  1  0
 19 20  2  0
 19 21  1  0
 21 22  3  0
 22 23  1  0
 23 24  2  0
 24 25  1  0
 25 26  2  0
 26 27  1  0
 27 28  1  0
 28 29  2  0
 28 30  1  0
 30 31  1  0
 31 32  2  0
 10 33  1  0
 33 34  2  0
 34 35  1  0
 35 36  1  0
 35 37  1  0
 35 38  1  0
  5 39  1  0
 39 40  1  0
 40  2  1  0
 34  7  1  0
 20 14  1  0
 32 23  1  0
 31 26  1  0
M  END
>  <pIC50>  (292) 
8.16

>  <ChEMBL_ID>  (292) 
CHEMBL1171658

>  <document_journal>  (292) 
J. Med. Chem.

>  <bao_endpoint>  (292) 
BAO_0000190

>  <potential_duplicate>  (292) 
False

>  <uo_units>  (292) 
UO_0000065

>  <canonical_smiles>  (292) 
CN1CCN(Cc2ccc(NC(=O)c3ccc(C)c(c3)C#Cc4cnc5NC(=O)Nc5c4)cc2C(F)(F)F)CC1

>  <parent_molecule_chembl_id>  (292) 
CHEMBL1171658

>  <assay_type>  (292) 
B

>  <src_id>  (292) 
1

>  <ligand_efficiency>  (292) 
{u'le': u'0.28', u'bei': u'14.88', u'sei': u'9.11', u'lle': u'3.73'}

>  <standard_flag>  (292) 
True

>  <molecule_chembl_id>  (292) 
CHEMBL1171658

>  <target_organism>  (292) 
Homo sapiens

>  <standard_units>  (292) 
nM

>  <record_id>  (292) 
924114

>  <document_chembl_id>  (292) 
CHEMBL1177713

>  <bao_format>  (292) 
BAO_0000357

>  <data_validity_description>  (292) 
None

>  <activity_id>  (292) 
3360194

>  <standard_type>  (292) 
IC50

>  <target_chembl_id>  (292) 
CHEMBL1862

>  <data_validity_comment>  (292) 
None

>  <published_value>  (292) 
6.9

>  <document_year>  (292) 
2010

>  <target_pref_name>  (292) 
Tyrosine-protein kinase ABL

>  <assay_chembl_id>  (292) 
CHEMBL1176860

>  <standard_relation>  (292) 
=

>  <assay_description>  (292) 
Inhibition of wild type human ABL after 1 hr by TR-FRET assay

>  <published_relation>  (292) 
=

>  <standard_value>  (292) 
6.9

>  <qudt_units>  (292) 
http://www.openphacts.org/units/Nanomolar

>  <target_tax_id>  (292) 
9606

>  <bao_label>  (292) 
single protein format

>  <published_units>  (292) 
nM

>  <pchembl_value>  (292) 
8.16

>  <published_type>  (292) 
IC50

>  <activity_comment>  (292) 
None

$$$$

     RDKit          

 41 45  0  0  0  0  0  0  0  0999 V2000
    0.0000    0.0000    0.0000 C   0  0  0  0  0  0  0  0  0  0  0  0
    0.0000    0.0000    0.0000 N   0  0  0  0  0  0  0  0  0  0  0  0
    0.0000    0.0000    0.0000 C   0  0  0  0  0  0  0  0  0  0  0  0
    0.0000    0.0000    0.0000 C   0  0  0  0  0  0  0  0  0  0  0  0
    0.0000    0.0000    0.0000 N   0  0  0  0  0  0  0  0  0  0  0  0
    0.0000    0.0000    0.0000 C   0  0  0  0  0  0  0  0  0  0  0  0
    0.0000    0.0000    0.0000 C   0  0  0  0  0  0  0  0  0  0  0  0
    0.0000    0.0000    0.0000 C   0  0  0  0  0  0  0  0  0  0  0  0
    0.0000    0.0000    0.0000 C   0  0  0  0  0  0  0  0  0  0  0  0
    0.0000    0.0000    0.0000 C   0  0  0  0  0  0  0  0  0  0  0  0
    0.0000    0.0000    0.0000 N   0  0  0  0  0  0  0  0  0  0  0  0
    0.0000    0.0000    0.0000 C   0  0  0  0  0  0  0  0  0  0  0  0
    0.0000    0.0000    0.0000 O   0  0  0  0  0  0  0  0  0  0  0  0
    0.0000    0.0000    0.0000 C   0  0  0  0  0  0  0  0  0  0  0  0
    0.0000    0.0000    0.0000 C   0  0  0  0  0  0  0  0  0  0  0  0
    0.0000    0.0000    0.0000 C   0  0  0  0  0  0  0  0  0  0  0  0
    0.0000    0.0000    0.0000 C   0  0  0  0  0  0  0  0  0  0  0  0
    0.0000    0.0000    0.0000 C   0  0  0  0  0  0  0  0  0  0  0  0
    0.0000    0.0000    0.0000 C   0  0  0  0  0  0  0  0  0  0  0  0
    0.0000    0.0000    0.0000 C   0  0  0  0  0  0  0  0  0  0  0  0
    0.0000    0.0000    0.0000 C   0  0  0  0  0  0  0  0  0  0  0  0
    0.0000    0.0000    0.0000 C   0  0  0  0  0  0  0  0  0  0  0  0
    0.0000    0.0000    0.0000 C   0  0  0  0  0  0  0  0  0  0  0  0
    0.0000    0.0000    0.0000 C   0  0  0  0  0  0  0  0  0  0  0  0
    0.0000    0.0000    0.0000 N   0  0  0  0  0  0  0  0  0  0  0  0
    0.0000    0.0000    0.0000 C   0  0  0  0  0  0  0  0  0  0  0  0
    0.0000    0.0000    0.0000 N   0  0  0  0  0  0  0  0  0  0  0  0
    0.0000    0.0000    0.0000 C   0  0  0  0  0  0  0  0  0  0  0  0
    0.0000    0.0000    0.0000 O   0  0  0  0  0  0  0  0  0  0  0  0
    0.0000    0.0000    0.0000 C   0  0  0  0  0  0  0  0  0  0  0  0
    0.0000    0.0000    0.0000 O   0  0  0  0  0  0  0  0  0  0  0  0
    0.0000    0.0000    0.0000 C   0  0  0  0  0  0  0  0  0  0  0  0
    0.0000    0.0000    0.0000 C   0  0  0  0  0  0  0  0  0  0  0  0
    0.0000    0.0000    0.0000 C   0  0  0  0  0  0  0  0  0  0  0  0
    0.0000    0.0000    0.0000 C   0  0  0  0  0  0  0  0  0  0  0  0
    0.0000    0.0000    0.0000 C   0  0  0  0  0  0  0  0  0  0  0  0
    0.0000    0.0000    0.0000 F   0  0  0  0  0  0  0  0  0  0  0  0
    0.0000    0.0000    0.0000 F   0  0  0  0  0  0  0  0  0  0  0  0
    0.0000    0.0000    0.0000 F   0  0  0  0  0  0  0  0  0  0  0  0
    0.0000    0.0000    0.0000 C   0  0  0  0  0  0  0  0  0  0  0  0
    0.0000    0.0000    0.0000 C   0  0  0  0  0  0  0  0  0  0  0  0
  1  2  1  0
  2  3  1  0
  3  4  1  0
  4  5  1  0
  5  6  1  0
  6  7  1  0
  7  8  2  0
  8  9  1  0
  9 10  2  0
 10 11  1  0
 11 12  1  0
 12 13  2  0
 12 14  1  0
 14 15  2  0
 15 16  1  0
 16 17  2  0
 17 18  1  0
 17 19  1  0
 19 20  2  0
 19 21  1  0
 21 22  3  0
 22 23  1  0
 23 24  2  0
 24 25  1  0
 25 26  2  0
 26 27  1  0
 27 28  1  0
 28 29  2  0
 28 30  1  0
 30 31  1  0
 31 32  1  0
 32 33  2  0
 10 34  1  0
 34 35  2  0
 35 36  1  0
 36 37  1  0
 36 38  1  0
 36 39  1  0
  5 40  1  0
 40 41  1  0
 41  2  1  0
 35  7  1  0
 20 14  1  0
 33 23  1  0
 32 26  1  0
M  END
>  <pIC50>  (293) 
7.38

>  <ChEMBL_ID>  (293) 
CHEMBL1171247

>  <document_journal>  (293) 
J. Med. Chem.

>  <bao_endpoint>  (293) 
BAO_0000190

>  <potential_duplicate>  (293) 
False

>  <uo_units>  (293) 
UO_0000065

>  <canonical_smiles>  (293) 
CN1CCN(Cc2ccc(NC(=O)c3ccc(C)c(c3)C#Cc4cnc5NC(=O)COc5c4)cc2C(F)(F)F)CC1

>  <parent_molecule_chembl_id>  (293) 
CHEMBL1171247

>  <assay_type>  (293) 
B

>  <src_id>  (293) 
1

>  <ligand_efficiency>  (293) 
{u'le': u'0.25', u'bei': u'13.09', u'sei': u'8.5', u'lle': u'3.02'}

>  <standard_flag>  (293) 
True

>  <molecule_chembl_id>  (293) 
CHEMBL1171247

>  <target_organism>  (293) 
Homo sapiens

>  <standard_units>  (293) 
nM

>  <record_id>  (293) 
924115

>  <document_chembl_id>  (293) 
CHEMBL1177713

>  <bao_format>  (293) 
BAO_0000357

>  <data_validity_description>  (293) 
None

>  <activity_id>  (293) 
3360195

>  <standard_type>  (293) 
IC50

>  <target_chembl_id>  (293) 
CHEMBL1862

>  <data_validity_comment>  (293) 
None

>  <published_value>  (293) 
42

>  <document_year>  (293) 
2010

>  <target_pref_name>  (293) 
Tyrosine-protein kinase ABL

>  <assay_chembl_id>  (293) 
CHEMBL1176860

>  <standard_relation>  (293) 
=

>  <assay_description>  (293) 
Inhibition of wild type human ABL after 1 hr by TR-FRET assay

>  <published_relation>  (293) 
=

>  <standard_value>  (293) 
42

>  <qudt_units>  (293) 
http://www.openphacts.org/units/Nanomolar

>  <target_tax_id>  (293) 
9606

>  <bao_label>  (293) 
single protein format

>  <published_units>  (293) 
nM

>  <pchembl_value>  (293) 
7.38

>  <published_type>  (293) 
IC50

>  <activity_comment>  (293) 
None

$$$$

     RDKit          

 39 43  0  0  0  0  0  0  0  0999 V2000
    0.0000    0.0000    0.0000 C   0  0  0  0  0  0  0  0  0  0  0  0
    0.0000    0.0000    0.0000 N   0  0  0  0  0  0  0  0  0  0  0  0
    0.0000    0.0000    0.0000 C   0  0  0  0  0  0  0  0  0  0  0  0
    0.0000    0.0000    0.0000 C   0  0  0  0  0  0  0  0  0  0  0  0
    0.0000    0.0000    0.0000 N   0  0  0  0  0  0  0  0  0  0  0  0
    0.0000    0.0000    0.0000 C   0  0  0  0  0  0  0  0  0  0  0  0
    0.0000    0.0000    0.0000 C   0  0  0  0  0  0  0  0  0  0  0  0
    0.0000    0.0000    0.0000 C   0  0  0  0  0  0  0  0  0  0  0  0
    0.0000    0.0000    0.0000 C   0  0  0  0  0  0  0  0  0  0  0  0
    0.0000    0.0000    0.0000 C   0  0  0  0  0  0  0  0  0  0  0  0
    0.0000    0.0000    0.0000 N   0  0  0  0  0  0  0  0  0  0  0  0
    0.0000    0.0000    0.0000 C   0  0  0  0  0  0  0  0  0  0  0  0
    0.0000    0.0000    0.0000 O   0  0  0  0  0  0  0  0  0  0  0  0
    0.0000    0.0000    0.0000 C   0  0  0  0  0  0  0  0  0  0  0  0
    0.0000    0.0000    0.0000 C   0  0  0  0  0  0  0  0  0  0  0  0
    0.0000    0.0000    0.0000 C   0  0  0  0  0  0  0  0  0  0  0  0
    0.0000    0.0000    0.0000 C   0  0  0  0  0  0  0  0  0  0  0  0
    0.0000    0.0000    0.0000 C   0  0  0  0  0  0  0  0  0  0  0  0
    0.0000    0.0000    0.0000 C   0  0  0  0  0  0  0  0  0  0  0  0
    0.0000    0.0000    0.0000 C   0  0  0  0  0  0  0  0  0  0  0  0
    0.0000    0.0000    0.0000 C   0  0  0  0  0  0  0  0  0  0  0  0
    0.0000    0.0000    0.0000 C   0  0  0  0  0  0  0  0  0  0  0  0
    0.0000    0.0000    0.0000 C   0  0  0  0  0  0  0  0  0  0  0  0
    0.0000    0.0000    0.0000 C   0  0  0  0  0  0  0  0  0  0  0  0
    0.0000    0.0000    0.0000 N   0  0  0  0  0  0  0  0  0  0  0  0
    0.0000    0.0000    0.0000 C   0  0  0  0  0  0  0  0  0  0  0  0
    0.0000    0.0000    0.0000 N   0  0  0  0  0  0  0  0  0  0  0  0
    0.0000    0.0000    0.0000 C   0  0  0  0  0  0  0  0  0  0  0  0
    0.0000    0.0000    0.0000 C   0  0  0  0  0  0  0  0  0  0  0  0
    0.0000    0.0000    0.0000 C   0  0  0  0  0  0  0  0  0  0  0  0
    0.0000    0.0000    0.0000 N   0  0  0  0  0  0  0  0  0  0  0  0
    0.0000    0.0000    0.0000 C   0  0  0  0  0  0  0  0  0  0  0  0
    0.0000    0.0000    0.0000 C   0  0  0  0  0  0  0  0  0  0  0  0
    0.0000    0.0000    0.0000 C   0  0  0  0  0  0  0  0  0  0  0  0
    0.0000    0.0000    0.0000 F   0  0  0  0  0  0  0  0  0  0  0  0
    0.0000    0.0000    0.0000 F   0  0  0  0  0  0  0  0  0  0  0  0
    0.0000    0.0000    0.0000 F   0  0  0  0  0  0  0  0  0  0  0  0
    0.0000    0.0000    0.0000 C   0  0  0  0  0  0  0  0  0  0  0  0
    0.0000    0.0000    0.0000 C   0  0  0  0  0  0  0  0  0  0  0  0
  1  2  1  0
  2  3  1  0
  3  4  1  0
  4  5  1  0
  5  6  1  0
  6  7  1  0
  7  8  2  0
  8  9  1  0
  9 10  2  0
 10 11  1  0
 11 12  1  0
 12 13  2  0
 12 14  1  0
 14 15  2  0
 15 16  1  0
 16 17  2  0
 17 18  1  0
 17 19  1  0
 19 20  2  0
 19 21  1  0
 21 22  3  0
 22 23  1  0
 23 24  2  0
 24 25  1  0
 25 26  2  0
 26 27  1  0
 27 28  2  0
 28 29  1  0
 29 30  2  0
 30 31  1  0
 10 32  1  0
 32 33  2  0
 33 34  1  0
 34 35  1  0
 34 36  1  0
 34 37  1  0
  5 38  1  0
 38 39  1  0
 39  2  1  0
 33  7  1  0
 20 14  1  0
 31 23  1  0
 31 26  1  0
M  END
>  <pIC50>  (294) 
7.16

>  <ChEMBL_ID>  (294) 
CHEMBL1171835

>  <document_journal>  (294) 
J. Med. Chem.

>  <bao_endpoint>  (294) 
BAO_0000190

>  <potential_duplicate>  (294) 
False

>  <uo_units>  (294) 
UO_0000065

>  <canonical_smiles>  (294) 
CN1CCN(Cc2ccc(NC(=O)c3ccc(C)c(c3)C#Cc4cnc5ncccn45)cc2C(F)(F)F)CC1

>  <parent_molecule_chembl_id>  (294) 
CHEMBL1171835

>  <assay_type>  (294) 
B

>  <src_id>  (294) 
1

>  <ligand_efficiency>  (294) 
{u'le': u'0.25', u'bei': u'13.45', u'sei': u'10.89', u'lle': u'2.19'}

>  <standard_flag>  (294) 
True

>  <molecule_chembl_id>  (294) 
CHEMBL1171835

>  <target_organism>  (294) 
Homo sapiens

>  <standard_units>  (294) 
nM

>  <record_id>  (294) 
924116

>  <document_chembl_id>  (294) 
CHEMBL1177713

>  <bao_format>  (294) 
BAO_0000357

>  <data_validity_description>  (294) 
None

>  <activity_id>  (294) 
3360196

>  <standard_type>  (294) 
IC50

>  <target_chembl_id>  (294) 
CHEMBL1862

>  <data_validity_comment>  (294) 
None

>  <published_value>  (294) 
69

>  <document_year>  (294) 
2010

>  <target_pref_name>  (294) 
Tyrosine-protein kinase ABL

>  <assay_chembl_id>  (294) 
CHEMBL1176860

>  <standard_relation>  (294) 
=

>  <assay_description>  (294) 
Inhibition of wild type human ABL after 1 hr by TR-FRET assay

>  <published_relation>  (294) 
=

>  <standard_value>  (294) 
69

>  <qudt_units>  (294) 
http://www.openphacts.org/units/Nanomolar

>  <target_tax_id>  (294) 
9606

>  <bao_label>  (294) 
single protein format

>  <published_units>  (294) 
nM

>  <pchembl_value>  (294) 
7.16

>  <published_type>  (294) 
IC50

>  <activity_comment>  (294) 
None

$$$$

     RDKit          

 39 43  0  0  0  0  0  0  0  0999 V2000
    0.0000    0.0000    0.0000 C   0  0  0  0  0  0  0  0  0  0  0  0
    0.0000    0.0000    0.0000 N   0  0  0  0  0  0  0  0  0  0  0  0
    0.0000    0.0000    0.0000 C   0  0  0  0  0  0  0  0  0  0  0  0
    0.0000    0.0000    0.0000 C   0  0  0  0  0  0  0  0  0  0  0  0
    0.0000    0.0000    0.0000 N   0  0  0  0  0  0  0  0  0  0  0  0
    0.0000    0.0000    0.0000 C   0  0  0  0  0  0  0  0  0  0  0  0
    0.0000    0.0000    0.0000 C   0  0  0  0  0  0  0  0  0  0  0  0
    0.0000    0.0000    0.0000 C   0  0  0  0  0  0  0  0  0  0  0  0
    0.0000    0.0000    0.0000 C   0  0  0  0  0  0  0  0  0  0  0  0
    0.0000    0.0000    0.0000 C   0  0  0  0  0  0  0  0  0  0  0  0
    0.0000    0.0000    0.0000 N   0  0  0  0  0  0  0  0  0  0  0  0
    0.0000    0.0000    0.0000 C   0  0  0  0  0  0  0  0  0  0  0  0
    0.0000    0.0000    0.0000 O   0  0  0  0  0  0  0  0  0  0  0  0
    0.0000    0.0000    0.0000 C   0  0  0  0  0  0  0  0  0  0  0  0
    0.0000    0.0000    0.0000 C   0  0  0  0  0  0  0  0  0  0  0  0
    0.0000    0.0000    0.0000 C   0  0  0  0  0  0  0  0  0  0  0  0
    0.0000    0.0000    0.0000 C   0  0  0  0  0  0  0  0  0  0  0  0
    0.0000    0.0000    0.0000 C   0  0  0  0  0  0  0  0  0  0  0  0
    0.0000    0.0000    0.0000 C   0  0  0  0  0  0  0  0  0  0  0  0
    0.0000    0.0000    0.0000 C   0  0  0  0  0  0  0  0  0  0  0  0
    0.0000    0.0000    0.0000 C   0  0  0  0  0  0  0  0  0  0  0  0
    0.0000    0.0000    0.0000 C   0  0  0  0  0  0  0  0  0  0  0  0
    0.0000    0.0000    0.0000 C   0  0  0  0  0  0  0  0  0  0  0  0
    0.0000    0.0000    0.0000 C   0  0  0  0  0  0  0  0  0  0  0  0
    0.0000    0.0000    0.0000 N   0  0  0  0  0  0  0  0  0  0  0  0
    0.0000    0.0000    0.0000 C   0  0  0  0  0  0  0  0  0  0  0  0
    0.0000    0.0000    0.0000 C   0  0  0  0  0  0  0  0  0  0  0  0
    0.0000    0.0000    0.0000 N   0  0  0  0  0  0  0  0  0  0  0  0
    0.0000    0.0000    0.0000 C   0  0  0  0  0  0  0  0  0  0  0  0
    0.0000    0.0000    0.0000 C   0  0  0  0  0  0  0  0  0  0  0  0
    0.0000    0.0000    0.0000 N   0  0  0  0  0  0  0  0  0  0  0  0
    0.0000    0.0000    0.0000 C   0  0  0  0  0  0  0  0  0  0  0  0
    0.0000    0.0000    0.0000 C   0  0  0  0  0  0  0  0  0  0  0  0
    0.0000    0.0000    0.0000 C   0  0  0  0  0  0  0  0  0  0  0  0
    0.0000    0.0000    0.0000 F   0  0  0  0  0  0  0  0  0  0  0  0
    0.0000    0.0000    0.0000 F   0  0  0  0  0  0  0  0  0  0  0  0
    0.0000    0.0000    0.0000 F   0  0  0  0  0  0  0  0  0  0  0  0
    0.0000    0.0000    0.0000 C   0  0  0  0  0  0  0  0  0  0  0  0
    0.0000    0.0000    0.0000 C   0  0  0  0  0  0  0  0  0  0  0  0
  1  2  1  0
  2  3  1  0
  3  4  1  0
  4  5  1  0
  5  6  1  0
  6  7  1  0
  7  8  2  0
  8  9  1  0
  9 10  2  0
 10 11  1  0
 11 12  1  0
 12 13  2  0
 12 14  1  0
 14 15  2  0
 15 16  1  0
 16 17  2  0
 17 18  1  0
 17 19  1  0
 19 20  2  0
 19 21  1  0
 21 22  3  0
 22 23  1  0
 23 24  2  0
 24 25  1  0
 25 26  2  0
 26 27  1  0
 27 28  2  0
 28 29  1  0
 29 30  2  0
 30 31  1  0
 10 32  1  0
 32 33  2  0
 33 34  1  0
 34 35  1  0
 34 36  1  0
 34 37  1  0
  5 38  1  0
 38 39  1  0
 39  2  1  0
 33  7  1  0
 20 14  1  0
 31 23  1  0
 31 26  1  0
M  END
>  <pIC50>  (295) 
8.64

>  <ChEMBL_ID>  (295) 
CHEMBL1171836

>  <document_journal>  (295) 
J. Med. Chem.

>  <bao_endpoint>  (295) 
BAO_0000190

>  <potential_duplicate>  (295) 
False

>  <uo_units>  (295) 
UO_0000065

>  <canonical_smiles>  (295) 
CN1CCN(Cc2ccc(NC(=O)c3ccc(C)c(c3)C#Cc4cnc5cnccn45)cc2C(F)(F)F)CC1

>  <parent_molecule_chembl_id>  (295) 
CHEMBL1171836

>  <assay_type>  (295) 
B

>  <src_id>  (295) 
1

>  <ligand_efficiency>  (295) 
{u'le': u'0.3', u'bei': u'16.22', u'sei': u'13.13', u'lle': u'4.44'}

>  <standard_flag>  (295) 
True

>  <molecule_chembl_id>  (295) 
CHEMBL1171836

>  <target_organism>  (295) 
Homo sapiens

>  <standard_units>  (295) 
nM

>  <record_id>  (295) 
924211

>  <document_chembl_id>  (295) 
CHEMBL1177713

>  <bao_format>  (295) 
BAO_0000357

>  <data_validity_description>  (295) 
None

>  <activity_id>  (295) 
3360197

>  <standard_type>  (295) 
IC50

>  <target_chembl_id>  (295) 
CHEMBL1862

>  <data_validity_comment>  (295) 
None

>  <published_value>  (295) 
2.3

>  <document_year>  (295) 
2010

>  <target_pref_name>  (295) 
Tyrosine-protein kinase ABL

>  <assay_chembl_id>  (295) 
CHEMBL1176860

>  <standard_relation>  (295) 
=

>  <assay_description>  (295) 
Inhibition of wild type human ABL after 1 hr by TR-FRET assay

>  <published_relation>  (295) 
=

>  <standard_value>  (295) 
2.3

>  <qudt_units>  (295) 
http://www.openphacts.org/units/Nanomolar

>  <target_tax_id>  (295) 
9606

>  <bao_label>  (295) 
single protein format

>  <published_units>  (295) 
nM

>  <pchembl_value>  (295) 
8.64

>  <published_type>  (295) 
IC50

>  <activity_comment>  (295) 
None

$$$$

     RDKit          

 39 43  0  0  0  0  0  0  0  0999 V2000
    0.0000    0.0000    0.0000 C   0  0  0  0  0  0  0  0  0  0  0  0
    0.0000    0.0000    0.0000 N   0  0  0  0  0  0  0  0  0  0  0  0
    0.0000    0.0000    0.0000 C   0  0  0  0  0  0  0  0  0  0  0  0
    0.0000    0.0000    0.0000 C   0  0  0  0  0  0  0  0  0  0  0  0
    0.0000    0.0000    0.0000 N   0  0  0  0  0  0  0  0  0  0  0  0
    0.0000    0.0000    0.0000 C   0  0  0  0  0  0  0  0  0  0  0  0
    0.0000    0.0000    0.0000 C   0  0  0  0  0  0  0  0  0  0  0  0
    0.0000    0.0000    0.0000 C   0  0  0  0  0  0  0  0  0  0  0  0
    0.0000    0.0000    0.0000 C   0  0  0  0  0  0  0  0  0  0  0  0
    0.0000    0.0000    0.0000 C   0  0  0  0  0  0  0  0  0  0  0  0
    0.0000    0.0000    0.0000 N   0  0  0  0  0  0  0  0  0  0  0  0
    0.0000    0.0000    0.0000 C   0  0  0  0  0  0  0  0  0  0  0  0
    0.0000    0.0000    0.0000 O   0  0  0  0  0  0  0  0  0  0  0  0
    0.0000    0.0000    0.0000 C   0  0  0  0  0  0  0  0  0  0  0  0
    0.0000    0.0000    0.0000 C   0  0  0  0  0  0  0  0  0  0  0  0
    0.0000    0.0000    0.0000 C   0  0  0  0  0  0  0  0  0  0  0  0
    0.0000    0.0000    0.0000 C   0  0  0  0  0  0  0  0  0  0  0  0
    0.0000    0.0000    0.0000 C   0  0  0  0  0  0  0  0  0  0  0  0
    0.0000    0.0000    0.0000 C   0  0  0  0  0  0  0  0  0  0  0  0
    0.0000    0.0000    0.0000 C   0  0  0  0  0  0  0  0  0  0  0  0
    0.0000    0.0000    0.0000 C   0  0  0  0  0  0  0  0  0  0  0  0
    0.0000    0.0000    0.0000 C   0  0  0  0  0  0  0  0  0  0  0  0
    0.0000    0.0000    0.0000 C   0  0  0  0  0  0  0  0  0  0  0  0
    0.0000    0.0000    0.0000 C   0  0  0  0  0  0  0  0  0  0  0  0
    0.0000    0.0000    0.0000 N   0  0  0  0  0  0  0  0  0  0  0  0
    0.0000    0.0000    0.0000 C   0  0  0  0  0  0  0  0  0  0  0  0
    0.0000    0.0000    0.0000 C   0  0  0  0  0  0  0  0  0  0  0  0
    0.0000    0.0000    0.0000 C   0  0  0  0  0  0  0  0  0  0  0  0
    0.0000    0.0000    0.0000 C   0  0  0  0  0  0  0  0  0  0  0  0
    0.0000    0.0000    0.0000 N   0  0  0  0  0  0  0  0  0  0  0  0
    0.0000    0.0000    0.0000 N   0  0  0  0  0  0  0  0  0  0  0  0
    0.0000    0.0000    0.0000 C   0  0  0  0  0  0  0  0  0  0  0  0
    0.0000    0.0000    0.0000 C   0  0  0  0  0  0  0  0  0  0  0  0
    0.0000    0.0000    0.0000 C   0  0  0  0  0  0  0  0  0  0  0  0
    0.0000    0.0000    0.0000 F   0  0  0  0  0  0  0  0  0  0  0  0
    0.0000    0.0000    0.0000 F   0  0  0  0  0  0  0  0  0  0  0  0
    0.0000    0.0000    0.0000 F   0  0  0  0  0  0  0  0  0  0  0  0
    0.0000    0.0000    0.0000 C   0  0  0  0  0  0  0  0  0  0  0  0
    0.0000    0.0000    0.0000 C   0  0  0  0  0  0  0  0  0  0  0  0
  1  2  1  0
  2  3  1  0
  3  4  1  0
  4  5  1  0
  5  6  1  0
  6  7  1  0
  7  8  2  0
  8  9  1  0
  9 10  2  0
 10 11  1  0
 11 12  1  0
 12 13  2  0
 12 14  1  0
 14 15  2  0
 15 16  1  0
 16 17  2  0
 17 18  1  0
 17 19  1  0
 19 20  2  0
 19 21  1  0
 21 22  3  0
 22 23  1  0
 23 24  2  0
 24 25  1  0
 25 26  2  0
 26 27  1  0
 27 28  2  0
 28 29  1  0
 29 30  2  0
 30 31  1  0
 10 32  1  0
 32 33  2  0
 33 34  1  0
 34 35  1  0
 34 36  1  0
 34 37  1  0
  5 38  1  0
 38 39  1  0
 39  2  1  0
 33  7  1  0
 20 14  1  0
 31 23  1  0
 31 26  1  0
M  END
>  <pIC50>  (296) 
8.98583333333

>  <ChEMBL_ID>  (296) 
CHEMBL1171837

>  <document_journal>  (296) 
J. Med. Chem.

>  <bao_endpoint>  (296) 
BAO_0000190

>  <potential_duplicate>  (296) 
False

>  <uo_units>  (296) 
UO_0000065

>  <canonical_smiles>  (296) 
CN1CCN(Cc2ccc(NC(=O)c3ccc(C)c(c3)C#Cc4cnc5cccnn45)cc2C(F)(F)F)CC1

>  <parent_molecule_chembl_id>  (296) 
CHEMBL1171837

>  <assay_type>  (296) 
B

>  <src_id>  (296) 
1

>  <ligand_efficiency>  (296) 
{u'le': u'0.28', u'bei': u'15.14', u'sei': u'12.26', u'lle': u'3.19'}

>  <standard_flag>  (296) 
True

>  <molecule_chembl_id>  (296) 
CHEMBL1171837

>  <target_organism>  (296) 
Homo sapiens

>  <standard_units>  (296) 
nM

>  <record_id>  (296) 
924212

>  <document_chembl_id>  (296) 
CHEMBL1177713

>  <bao_format>  (296) 
BAO_0000357

>  <data_validity_description>  (296) 
None

>  <activity_id>  (296) 
3360198

>  <standard_type>  (296) 
IC50

>  <target_chembl_id>  (296) 
CHEMBL1862

>  <data_validity_comment>  (296) 
None

>  <published_value>  (296) 
8.6

>  <document_year>  (296) 
2010

>  <target_pref_name>  (296) 
Tyrosine-protein kinase ABL

>  <assay_chembl_id>  (296) 
CHEMBL1176860

>  <standard_relation>  (296) 
=

>  <assay_description>  (296) 
Inhibition of wild type human ABL after 1 hr by TR-FRET assay

>  <published_relation>  (296) 
=

>  <standard_value>  (296) 
8.6

>  <qudt_units>  (296) 
http://www.openphacts.org/units/Nanomolar

>  <target_tax_id>  (296) 
9606

>  <bao_label>  (296) 
single protein format

>  <published_units>  (296) 
nM

>  <pchembl_value>  (296) 
8.07

>  <published_type>  (296) 
IC50

>  <activity_comment>  (296) 
None

$$$$

     RDKit          

 40 44  0  0  0  0  0  0  0  0999 V2000
    0.0000    0.0000    0.0000 C   0  0  0  0  0  0  0  0  0  0  0  0
    0.0000    0.0000    0.0000 C   0  0  0  0  0  0  0  0  0  0  0  0
    0.0000    0.0000    0.0000 N   0  0  0  0  0  0  0  0  0  0  0  0
    0.0000    0.0000    0.0000 C   0  0  0  0  0  0  0  0  0  0  0  0
    0.0000    0.0000    0.0000 C   0  0  0  0  0  0  0  0  0  0  0  0
    0.0000    0.0000    0.0000 N   0  0  0  0  0  0  0  0  0  0  0  0
    0.0000    0.0000    0.0000 C   0  0  0  0  0  0  0  0  0  0  0  0
    0.0000    0.0000    0.0000 C   0  0  0  0  0  0  0  0  0  0  0  0
    0.0000    0.0000    0.0000 C   0  0  0  0  0  0  0  0  0  0  0  0
    0.0000    0.0000    0.0000 C   0  0  0  0  0  0  0  0  0  0  0  0
    0.0000    0.0000    0.0000 C   0  0  0  0  0  0  0  0  0  0  0  0
    0.0000    0.0000    0.0000 N   0  0  0  0  0  0  0  0  0  0  0  0
    0.0000    0.0000    0.0000 C   0  0  0  0  0  0  0  0  0  0  0  0
    0.0000    0.0000    0.0000 O   0  0  0  0  0  0  0  0  0  0  0  0
    0.0000    0.0000    0.0000 C   0  0  0  0  0  0  0  0  0  0  0  0
    0.0000    0.0000    0.0000 C   0  0  0  0  0  0  0  0  0  0  0  0
    0.0000    0.0000    0.0000 C   0  0  0  0  0  0  0  0  0  0  0  0
    0.0000    0.0000    0.0000 C   0  0  0  0  0  0  0  0  0  0  0  0
    0.0000    0.0000    0.0000 C   0  0  0  0  0  0  0  0  0  0  0  0
    0.0000    0.0000    0.0000 C   0  0  0  0  0  0  0  0  0  0  0  0
    0.0000    0.0000    0.0000 C   0  0  0  0  0  0  0  0  0  0  0  0
    0.0000    0.0000    0.0000 C   0  0  0  0  0  0  0  0  0  0  0  0
    0.0000    0.0000    0.0000 C   0  0  0  0  0  0  0  0  0  0  0  0
    0.0000    0.0000    0.0000 C   0  0  0  0  0  0  0  0  0  0  0  0
    0.0000    0.0000    0.0000 C   0  0  0  0  0  0  0  0  0  0  0  0
    0.0000    0.0000    0.0000 N   0  0  0  0  0  0  0  0  0  0  0  0
    0.0000    0.0000    0.0000 C   0  0  0  0  0  0  0  0  0  0  0  0
    0.0000    0.0000    0.0000 C   0  0  0  0  0  0  0  0  0  0  0  0
    0.0000    0.0000    0.0000 C   0  0  0  0  0  0  0  0  0  0  0  0
    0.0000    0.0000    0.0000 C   0  0  0  0  0  0  0  0  0  0  0  0
    0.0000    0.0000    0.0000 N   0  0  0  0  0  0  0  0  0  0  0  0
    0.0000    0.0000    0.0000 N   0  0  0  0  0  0  0  0  0  0  0  0
    0.0000    0.0000    0.0000 C   0  0  0  0  0  0  0  0  0  0  0  0
    0.0000    0.0000    0.0000 C   0  0  0  0  0  0  0  0  0  0  0  0
    0.0000    0.0000    0.0000 C   0  0  0  0  0  0  0  0  0  0  0  0
    0.0000    0.0000    0.0000 F   0  0  0  0  0  0  0  0  0  0  0  0
    0.0000    0.0000    0.0000 F   0  0  0  0  0  0  0  0  0  0  0  0
    0.0000    0.0000    0.0000 F   0  0  0  0  0  0  0  0  0  0  0  0
    0.0000    0.0000    0.0000 C   0  0  0  0  0  0  0  0  0  0  0  0
    0.0000    0.0000    0.0000 C   0  0  0  0  0  0  0  0  0  0  0  0
  1  2  1  0
  2  3  1  0
  3  4  1  0
  4  5  1  0
  5  6  1  0
  6  7  1  0
  7  8  1  0
  8  9  2  0
  9 10  1  0
 10 11  2  0
 11 12  1  0
 12 13  1  0
 13 14  2  0
 13 15  1  0
 15 16  2  0
 16 17  1  0
 17 18  2  0
 18 19  1  0
 18 20  1  0
 20 21  2  0
 20 22  1  0
 22 23  3  0
 23 24  1  0
 24 25  2  0
 25 26  1  0
 26 27  2  0
 27 28  1  0
 28 29  2  0
 29 30  1  0
 30 31  2  0
 31 32  1  0
 11 33  1  0
 33 34  2  0
 34 35  1  0
 35 36  1  0
 35 37  1  0
 35 38  1  0
  6 39  1  0
 39 40  1  0
 40  3  1  0
 34  8  1  0
 21 15  1  0
 32 24  1  0
 32 27  1  0
M  END
>  <pIC50>  (297) 
7.85

>  <ChEMBL_ID>  (297) 
CHEMBL1172004

>  <document_journal>  (297) 
J. Med. Chem.

>  <bao_endpoint>  (297) 
BAO_0000190

>  <potential_duplicate>  (297) 
False

>  <uo_units>  (297) 
UO_0000065

>  <canonical_smiles>  (297) 
CCN1CCN(Cc2ccc(NC(=O)c3ccc(C)c(c3)C#Cc4cnc5cccnn45)cc2C(F)(F)F)CC1

>  <parent_molecule_chembl_id>  (297) 
CHEMBL1172004

>  <assay_type>  (297) 
B

>  <src_id>  (297) 
1

>  <ligand_efficiency>  (297) 
{u'le': u'0.27', u'bei': u'14.37', u'sei': u'11.94', u'lle': u'2.62'}

>  <standard_flag>  (297) 
True

>  <molecule_chembl_id>  (297) 
CHEMBL1172004

>  <target_organism>  (297) 
Homo sapiens

>  <standard_units>  (297) 
nM

>  <record_id>  (297) 
924213

>  <document_chembl_id>  (297) 
CHEMBL1177713

>  <bao_format>  (297) 
BAO_0000357

>  <data_validity_description>  (297) 
None

>  <activity_id>  (297) 
3360199

>  <standard_type>  (297) 
IC50

>  <target_chembl_id>  (297) 
CHEMBL1862

>  <data_validity_comment>  (297) 
None

>  <published_value>  (297) 
14

>  <document_year>  (297) 
2010

>  <target_pref_name>  (297) 
Tyrosine-protein kinase ABL

>  <assay_chembl_id>  (297) 
CHEMBL1176860

>  <standard_relation>  (297) 
=

>  <assay_description>  (297) 
Inhibition of wild type human ABL after 1 hr by TR-FRET assay

>  <published_relation>  (297) 
=

>  <standard_value>  (297) 
14

>  <qudt_units>  (297) 
http://www.openphacts.org/units/Nanomolar

>  <target_tax_id>  (297) 
9606

>  <bao_label>  (297) 
single protein format

>  <published_units>  (297) 
nM

>  <pchembl_value>  (297) 
7.85

>  <published_type>  (297) 
IC50

>  <activity_comment>  (297) 
None

$$$$

     RDKit          

 41 45  0  0  0  0  0  0  0  0999 V2000
    0.0000    0.0000    0.0000 C   0  0  0  0  0  0  0  0  0  0  0  0
    0.0000    0.0000    0.0000 C   0  0  0  0  0  0  0  0  0  0  0  0
    0.0000    0.0000    0.0000 C   0  0  0  0  0  0  0  0  0  0  0  0
    0.0000    0.0000    0.0000 C   0  0  0  0  0  0  0  0  0  0  0  0
    0.0000    0.0000    0.0000 C   0  0  0  0  0  0  0  0  0  0  0  0
    0.0000    0.0000    0.0000 C   0  0  0  0  0  0  0  0  0  0  0  0
    0.0000    0.0000    0.0000 C   0  0  0  0  0  0  0  0  0  0  0  0
    0.0000    0.0000    0.0000 C   0  0  0  0  0  0  0  0  0  0  0  0
    0.0000    0.0000    0.0000 C   0  0  0  0  0  0  0  0  0  0  0  0
    0.0000    0.0000    0.0000 C   0  0  0  0  0  0  0  0  0  0  0  0
    0.0000    0.0000    0.0000 C   0  0  0  0  0  0  0  0  0  0  0  0
    0.0000    0.0000    0.0000 N   0  0  0  0  0  0  0  0  0  0  0  0
    0.0000    0.0000    0.0000 C   0  0  0  0  0  0  0  0  0  0  0  0
    0.0000    0.0000    0.0000 C   0  0  0  0  0  0  0  0  0  0  0  0
    0.0000    0.0000    0.0000 C   0  0  0  0  0  0  0  0  0  0  0  0
    0.0000    0.0000    0.0000 C   0  0  0  0  0  0  0  0  0  0  0  0
    0.0000    0.0000    0.0000 N   0  0  0  0  0  0  0  0  0  0  0  0
    0.0000    0.0000    0.0000 N   0  0  0  0  0  0  0  0  0  0  0  0
    0.0000    0.0000    0.0000 C   0  0  0  0  0  0  0  0  0  0  0  0
    0.0000    0.0000    0.0000 O   0  0  0  0  0  0  0  0  0  0  0  0
    0.0000    0.0000    0.0000 N   0  0  0  0  0  0  0  0  0  0  0  0
    0.0000    0.0000    0.0000 C   0  0  0  0  0  0  0  0  0  0  0  0
    0.0000    0.0000    0.0000 C   0  0  0  0  0  0  0  0  0  0  0  0
    0.0000    0.0000    0.0000 C   0  0  0  0  0  0  0  0  0  0  0  0
    0.0000    0.0000    0.0000 C   0  0  0  0  0  0  0  0  0  0  0  0
    0.0000    0.0000    0.0000 C   0  0  0  0  0  0  0  0  0  0  0  0
    0.0000    0.0000    0.0000 N   0  0  0  0  0  0  0  0  0  0  0  0
    0.0000    0.0000    0.0000 C   0  0  0  0  0  0  0  0  0  0  0  0
    0.0000    0.0000    0.0000 C   0  0  0  0  0  0  0  0  0  0  0  0
    0.0000    0.0000    0.0000 N   0  0  0  0  0  0  0  0  0  0  0  0
    0.0000    0.0000    0.0000 C   0  0  0  0  0  0  0  0  0  0  0  0
    0.0000    0.0000    0.0000 C   0  0  0  0  0  0  0  0  0  0  0  0
    0.0000    0.0000    0.0000 O   0  0  0  0  0  0  0  0  0  0  0  0
    0.0000    0.0000    0.0000 C   0  0  0  0  0  0  0  0  0  0  0  0
    0.0000    0.0000    0.0000 C   0  0  0  0  0  0  0  0  0  0  0  0
    0.0000    0.0000    0.0000 C   0  0  0  0  0  0  0  0  0  0  0  0
    0.0000    0.0000    0.0000 C   0  0  0  0  0  0  0  0  0  0  0  0
    0.0000    0.0000    0.0000 C   0  0  0  0  0  0  0  0  0  0  0  0
    0.0000    0.0000    0.0000 F   0  0  0  0  0  0  0  0  0  0  0  0
    0.0000    0.0000    0.0000 F   0  0  0  0  0  0  0  0  0  0  0  0
    0.0000    0.0000    0.0000 F   0  0  0  0  0  0  0  0  0  0  0  0
  1  2  1  0
  2  3  2  0
  3  4  1  0
  4  5  2  0
  5  6  1  0
  6  7  2  0
  7  8  1  0
  8  9  3  0
  9 10  1  0
 10 11  2  0
 11 12  1  0
 12 13  2  0
 13 14  1  0
 14 15  2  0
 15 16  1  0
 16 17  2  0
 17 18  1  0
  5 19  1  0
 19 20  2  0
 19 21  1  0
 21 22  1  0
 22 23  2  0
 23 24  1  0
 24 25  2  0
 25 26  1  0
 26 27  1  0
 27 28  1  0
 28 29  1  0
 29 30  1  0
 30 31  1  0
 31 32  1  0
 32 33  1  0
 30 34  1  0
 34 35  1  0
 25 36  1  0
 36 37  2  0
 36 38  1  0
 38 39  1  0
 38 40  1  0
 38 41  1  0
  7  2  1  0
 18 10  1  0
 18 13  1  0
 37 22  1  0
 35 27  1  0
M  END
>  <pIC50>  (298) 
7.92

>  <ChEMBL_ID>  (298) 
CHEMBL1171432

>  <document_journal>  (298) 
J. Med. Chem.

>  <bao_endpoint>  (298) 
BAO_0000190

>  <potential_duplicate>  (298) 
False

>  <uo_units>  (298) 
UO_0000065

>  <canonical_smiles>  (298) 
Cc1ccc(cc1C#Cc2cnc3cccnn23)C(=O)Nc4ccc(CN5CCN(CCO)CC5)c(c4)C(F)(F)F

>  <parent_molecule_chembl_id>  (298) 
CHEMBL1171432

>  <assay_type>  (298) 
B

>  <src_id>  (298) 
1

>  <ligand_efficiency>  (298) 
{u'le': u'0.26', u'bei': u'14.08', u'sei': u'9.21', u'lle': u'3.57'}

>  <standard_flag>  (298) 
True

>  <molecule_chembl_id>  (298) 
CHEMBL1171432

>  <target_organism>  (298) 
Homo sapiens

>  <standard_units>  (298) 
nM

>  <record_id>  (298) 
924214

>  <document_chembl_id>  (298) 
CHEMBL1177713

>  <bao_format>  (298) 
BAO_0000357

>  <data_validity_description>  (298) 
None

>  <activity_id>  (298) 
3360200

>  <standard_type>  (298) 
IC50

>  <target_chembl_id>  (298) 
CHEMBL1862

>  <data_validity_comment>  (298) 
None

>  <published_value>  (298) 
12

>  <document_year>  (298) 
2010

>  <target_pref_name>  (298) 
Tyrosine-protein kinase ABL

>  <assay_chembl_id>  (298) 
CHEMBL1176860

>  <standard_relation>  (298) 
=

>  <assay_description>  (298) 
Inhibition of wild type human ABL after 1 hr by TR-FRET assay

>  <published_relation>  (298) 
=

>  <standard_value>  (298) 
12

>  <qudt_units>  (298) 
http://www.openphacts.org/units/Nanomolar

>  <target_tax_id>  (298) 
9606

>  <bao_label>  (298) 
single protein format

>  <published_units>  (298) 
nM

>  <pchembl_value>  (298) 
7.92

>  <published_type>  (298) 
IC50

>  <activity_comment>  (298) 
None

$$$$

     RDKit          

 38 42  0  0  0  0  0  0  0  0999 V2000
    0.0000    0.0000    0.0000 C   0  0  0  0  0  0  0  0  0  0  0  0
    0.0000    0.0000    0.0000 C   0  0  0  0  0  0  0  0  0  0  0  0
    0.0000    0.0000    0.0000 C   0  0  0  0  0  0  0  0  0  0  0  0
    0.0000    0.0000    0.0000 C   0  0  0  0  0  0  0  0  0  0  0  0
    0.0000    0.0000    0.0000 C   0  0  0  0  0  0  0  0  0  0  0  0
    0.0000    0.0000    0.0000 C   0  0  0  0  0  0  0  0  0  0  0  0
    0.0000    0.0000    0.0000 C   0  0  0  0  0  0  0  0  0  0  0  0
    0.0000    0.0000    0.0000 C   0  0  0  0  0  0  0  0  0  0  0  0
    0.0000    0.0000    0.0000 C   0  0  0  0  0  0  0  0  0  0  0  0
    0.0000    0.0000    0.0000 C   0  0  0  0  0  0  0  0  0  0  0  0
    0.0000    0.0000    0.0000 C   0  0  0  0  0  0  0  0  0  0  0  0
    0.0000    0.0000    0.0000 N   0  0  0  0  0  0  0  0  0  0  0  0
    0.0000    0.0000    0.0000 C   0  0  0  0  0  0  0  0  0  0  0  0
    0.0000    0.0000    0.0000 C   0  0  0  0  0  0  0  0  0  0  0  0
    0.0000    0.0000    0.0000 C   0  0  0  0  0  0  0  0  0  0  0  0
    0.0000    0.0000    0.0000 C   0  0  0  0  0  0  0  0  0  0  0  0
    0.0000    0.0000    0.0000 N   0  0  0  0  0  0  0  0  0  0  0  0
    0.0000    0.0000    0.0000 N   0  0  0  0  0  0  0  0  0  0  0  0
    0.0000    0.0000    0.0000 C   0  0  0  0  0  0  0  0  0  0  0  0
    0.0000    0.0000    0.0000 O   0  0  0  0  0  0  0  0  0  0  0  0
    0.0000    0.0000    0.0000 N   0  0  0  0  0  0  0  0  0  0  0  0
    0.0000    0.0000    0.0000 C   0  0  0  0  0  0  0  0  0  0  0  0
    0.0000    0.0000    0.0000 C   0  0  0  0  0  0  0  0  0  0  0  0
    0.0000    0.0000    0.0000 C   0  0  0  0  0  0  0  0  0  0  0  0
    0.0000    0.0000    0.0000 C   0  0  0  0  0  0  0  0  0  0  0  0
    0.0000    0.0000    0.0000 C   0  0  0  0  0  0  0  0  0  0  0  0
    0.0000    0.0000    0.0000 N   0  0  0  0  0  0  0  0  0  0  0  0
    0.0000    0.0000    0.0000 C   0  0  0  0  0  0  0  0  0  0  0  0
    0.0000    0.0000    0.0000 C   0  0  0  0  0  0  0  0  0  0  0  0
    0.0000    0.0000    0.0000 N   0  0  0  0  0  0  0  0  0  0  0  0
    0.0000    0.0000    0.0000 C   0  0  0  0  0  0  0  0  0  0  0  0
    0.0000    0.0000    0.0000 C   0  0  0  0  0  0  0  0  0  0  0  0
    0.0000    0.0000    0.0000 C   0  0  0  0  0  0  0  0  0  0  0  0
    0.0000    0.0000    0.0000 C   0  0  0  0  0  0  0  0  0  0  0  0
    0.0000    0.0000    0.0000 C   0  0  0  0  0  0  0  0  0  0  0  0
    0.0000    0.0000    0.0000 F   0  0  0  0  0  0  0  0  0  0  0  0
    0.0000    0.0000    0.0000 F   0  0  0  0  0  0  0  0  0  0  0  0
    0.0000    0.0000    0.0000 F   0  0  0  0  0  0  0  0  0  0  0  0
  1  2  1  0
  2  3  2  0
  3  4  1  0
  4  5  2  0
  5  6  1  0
  6  7  2  0
  7  8  1  0
  8  9  3  0
  9 10  1  0
 10 11  2  0
 11 12  1  0
 12 13  2  0
 13 14  1  0
 14 15  2  0
 15 16  1  0
 16 17  2  0
 17 18  1  0
  5 19  1  0
 19 20  2  0
 19 21  1  0
 21 22  1  0
 22 23  2  0
 23 24  1  0
 24 25  2  0
 25 26  1  0
 26 27  1  0
 27 28  1  0
 28 29  1  0
 29 30  1  0
 30 31  1  0
 31 32  1  0
 25 33  1  0
 33 34  2  0
 33 35  1  0
 35 36  1  0
 35 37  1  0
 35 38  1  0
  7  2  1  0
 18 10  1  0
 18 13  1  0
 34 22  1  0
 32 27  1  0
M  END
>  <pIC50>  (299) 
8.64

>  <ChEMBL_ID>  (299) 
CHEMBL1173352

>  <document_journal>  (299) 
J. Med. Chem.

>  <bao_endpoint>  (299) 
BAO_0000190

>  <potential_duplicate>  (299) 
False

>  <uo_units>  (299) 
UO_0000065

>  <canonical_smiles>  (299) 
Cc1ccc(cc1C#Cc2cnc3cccnn23)C(=O)Nc4ccc(CN5CCNCC5)c(c4)C(F)(F)F

>  <parent_molecule_chembl_id>  (299) 
CHEMBL1173352

>  <assay_type>  (299) 
B

>  <src_id>  (299) 
1

>  <ligand_efficiency>  (299) 
{u'le': u'0.31', u'bei': u'16.66', u'sei': u'11.59', u'lle': u'4.29'}

>  <standard_flag>  (299) 
True

>  <molecule_chembl_id>  (299) 
CHEMBL1173352

>  <target_organism>  (299) 
Homo sapiens

>  <standard_units>  (299) 
nM

>  <record_id>  (299) 
924294

>  <document_chembl_id>  (299) 
CHEMBL1177713

>  <bao_format>  (299) 
BAO_0000357

>  <data_validity_description>  (299) 
None

>  <activity_id>  (299) 
3360201

>  <standard_type>  (299) 
IC50

>  <target_chembl_id>  (299) 
CHEMBL1862

>  <data_validity_comment>  (299) 
None

>  <published_value>  (299) 
2.3

>  <document_year>  (299) 
2010

>  <target_pref_name>  (299) 
Tyrosine-protein kinase ABL

>  <assay_chembl_id>  (299) 
CHEMBL1176860

>  <standard_relation>  (299) 
=

>  <assay_description>  (299) 
Inhibition of wild type human ABL after 1 hr by TR-FRET assay

>  <published_relation>  (299) 
=

>  <standard_value>  (299) 
2.3

>  <qudt_units>  (299) 
http://www.openphacts.org/units/Nanomolar

>  <target_tax_id>  (299) 
9606

>  <bao_label>  (299) 
single protein format

>  <published_units>  (299) 
nM

>  <pchembl_value>  (299) 
8.64

>  <published_type>  (299) 
IC50

>  <activity_comment>  (299) 
None

$$$$

     RDKit          

 38 42  0  0  0  0  0  0  0  0999 V2000
    0.0000    0.0000    0.0000 C   0  0  0  0  0  0  0  0  0  0  0  0
    0.0000    0.0000    0.0000 N   0  0  0  0  0  0  0  0  0  0  0  0
    0.0000    0.0000    0.0000 C   0  0  0  0  0  0  0  0  0  0  0  0
    0.0000    0.0000    0.0000 C   0  0  0  0  0  0  0  0  0  0  0  0
    0.0000    0.0000    0.0000 N   0  0  0  0  0  0  0  0  0  0  0  0
    0.0000    0.0000    0.0000 C   0  0  0  0  0  0  0  0  0  0  0  0
    0.0000    0.0000    0.0000 C   0  0  0  0  0  0  0  0  0  0  0  0
    0.0000    0.0000    0.0000 C   0  0  0  0  0  0  0  0  0  0  0  0
    0.0000    0.0000    0.0000 C   0  0  0  0  0  0  0  0  0  0  0  0
    0.0000    0.0000    0.0000 C   0  0  0  0  0  0  0  0  0  0  0  0
    0.0000    0.0000    0.0000 N   0  0  0  0  0  0  0  0  0  0  0  0
    0.0000    0.0000    0.0000 C   0  0  0  0  0  0  0  0  0  0  0  0
    0.0000    0.0000    0.0000 O   0  0  0  0  0  0  0  0  0  0  0  0
    0.0000    0.0000    0.0000 C   0  0  0  0  0  0  0  0  0  0  0  0
    0.0000    0.0000    0.0000 C   0  0  0  0  0  0  0  0  0  0  0  0
    0.0000    0.0000    0.0000 C   0  0  0  0  0  0  0  0  0  0  0  0
    0.0000    0.0000    0.0000 C   0  0  0  0  0  0  0  0  0  0  0  0
    0.0000    0.0000    0.0000 C   0  0  0  0  0  0  0  0  0  0  0  0
    0.0000    0.0000    0.0000 C   0  0  0  0  0  0  0  0  0  0  0  0
    0.0000    0.0000    0.0000 C   0  0  0  0  0  0  0  0  0  0  0  0
    0.0000    0.0000    0.0000 C   0  0  0  0  0  0  0  0  0  0  0  0
    0.0000    0.0000    0.0000 C   0  0  0  0  0  0  0  0  0  0  0  0
    0.0000    0.0000    0.0000 C   0  0  0  0  0  0  0  0  0  0  0  0
    0.0000    0.0000    0.0000 N   0  0  0  0  0  0  0  0  0  0  0  0
    0.0000    0.0000    0.0000 C   0  0  0  0  0  0  0  0  0  0  0  0
    0.0000    0.0000    0.0000 C   0  0  0  0  0  0  0  0  0  0  0  0
    0.0000    0.0000    0.0000 C   0  0  0  0  0  0  0  0  0  0  0  0
    0.0000    0.0000    0.0000 C   0  0  0  0  0  0  0  0  0  0  0  0
    0.0000    0.0000    0.0000 N   0  0  0  0  0  0  0  0  0  0  0  0
    0.0000    0.0000    0.0000 N   0  0  0  0  0  0  0  0  0  0  0  0
    0.0000    0.0000    0.0000 C   0  0  0  0  0  0  0  0  0  0  0  0
    0.0000    0.0000    0.0000 C   0  0  0  0  0  0  0  0  0  0  0  0
    0.0000    0.0000    0.0000 C   0  0  0  0  0  0  0  0  0  0  0  0
    0.0000    0.0000    0.0000 F   0  0  0  0  0  0  0  0  0  0  0  0
    0.0000    0.0000    0.0000 F   0  0  0  0  0  0  0  0  0  0  0  0
    0.0000    0.0000    0.0000 F   0  0  0  0  0  0  0  0  0  0  0  0
    0.0000    0.0000    0.0000 C   0  0  0  0  0  0  0  0  0  0  0  0
    0.0000    0.0000    0.0000 C   0  0  0  0  0  0  0  0  0  0  0  0
  1  2  1  0
  2  3  1  0
  3  4  1  0
  4  5  1  0
  5  6  1  0
  6  7  1  0
  7  8  2  0
  8  9  1  0
  9 10  2  0
 10 11  1  0
 11 12  1  0
 12 13  2  0
 12 14  1  0
 14 15  2  0
 15 16  1  0
 16 17  2  0
 17 18  1  0
 18 19  2  0
 18 20  1  0
 20 21  3  0
 21 22  1  0
 22 23  2  0
 23 24  1  0
 24 25  2  0
 25 26  1  0
 26 27  2  0
 27 28  1  0
 28 29  2  0
 29 30  1  0
 10 31  1  0
 31 32  2  0
 32 33  1  0
 33 34  1  0
 33 35  1  0
 33 36  1  0
  5 37  1  0
 37 38  1  0
 38  2  1  0
 32  7  1  0
 19 14  1  0
 30 22  1  0
 30 25  1  0
M  END
>  <pIC50>  (300) 
7.51

>  <ChEMBL_ID>  (300) 
CHEMBL1173423

>  <document_journal>  (300) 
J. Med. Chem.

>  <bao_endpoint>  (300) 
BAO_0000190

>  <potential_duplicate>  (300) 
False

>  <uo_units>  (300) 
UO_0000065

>  <canonical_smiles>  (300) 
CN1CCN(Cc2ccc(NC(=O)c3cccc(c3)C#Cc4cnc5cccnn45)cc2C(F)(F)F)CC1

>  <parent_molecule_chembl_id>  (300) 
CHEMBL1173423

>  <assay_type>  (300) 
B

>  <src_id>  (300) 
1

>  <ligand_efficiency>  (300) 
{u'le': u'0.27', u'bei': u'14.48', u'sei': u'11.42', u'lle': u'3.11'}

>  <standard_flag>  (300) 
True

>  <molecule_chembl_id>  (300) 
CHEMBL1173423

>  <target_organism>  (300) 
Homo sapiens

>  <standard_units>  (300) 
nM

>  <record_id>  (300) 
924295

>  <document_chembl_id>  (300) 
CHEMBL1177713

>  <bao_format>  (300) 
BAO_0000357

>  <data_validity_description>  (300) 
None

>  <activity_id>  (300) 
3360202

>  <standard_type>  (300) 
IC50

>  <target_chembl_id>  (300) 
CHEMBL1862

>  <data_validity_comment>  (300) 
None

>  <published_value>  (300) 
31

>  <document_year>  (300) 
2010

>  <target_pref_name>  (300) 
Tyrosine-protein kinase ABL

>  <assay_chembl_id>  (300) 
CHEMBL1176860

>  <standard_relation>  (300) 
=

>  <assay_description>  (300) 
Inhibition of wild type human ABL after 1 hr by TR-FRET assay

>  <published_relation>  (300) 
=

>  <standard_value>  (300) 
31

>  <qudt_units>  (300) 
http://www.openphacts.org/units/Nanomolar

>  <target_tax_id>  (300) 
9606

>  <bao_label>  (300) 
single protein format

>  <published_units>  (300) 
nM

>  <pchembl_value>  (300) 
7.51

>  <published_type>  (300) 
IC50

>  <activity_comment>  (300) 
None

$$$$

     RDKit          

 39 43  0  0  0  0  0  0  0  0999 V2000
    0.0000    0.0000    0.0000 C   0  0  0  0  0  0  0  0  0  0  0  0
    0.0000    0.0000    0.0000 N   0  0  0  0  0  0  0  0  0  0  0  0
    0.0000    0.0000    0.0000 C   0  0  0  0  0  0  0  0  0  0  0  0
    0.0000    0.0000    0.0000 C   0  0  0  0  0  0  0  0  0  0  0  0
    0.0000    0.0000    0.0000 N   0  0  0  0  0  0  0  0  0  0  0  0
    0.0000    0.0000    0.0000 C   0  0  0  0  0  0  0  0  0  0  0  0
    0.0000    0.0000    0.0000 C   0  0  0  0  0  0  0  0  0  0  0  0
    0.0000    0.0000    0.0000 C   0  0  0  0  0  0  0  0  0  0  0  0
    0.0000    0.0000    0.0000 C   0  0  0  0  0  0  0  0  0  0  0  0
    0.0000    0.0000    0.0000 C   0  0  0  0  0  0  0  0  0  0  0  0
    0.0000    0.0000    0.0000 N   0  0  0  0  0  0  0  0  0  0  0  0
    0.0000    0.0000    0.0000 C   0  0  0  0  0  0  0  0  0  0  0  0
    0.0000    0.0000    0.0000 O   0  0  0  0  0  0  0  0  0  0  0  0
    0.0000    0.0000    0.0000 C   0  0  0  0  0  0  0  0  0  0  0  0
    0.0000    0.0000    0.0000 C   0  0  0  0  0  0  0  0  0  0  0  0
    0.0000    0.0000    0.0000 C   0  0  0  0  0  0  0  0  0  0  0  0
    0.0000    0.0000    0.0000 C   0  0  0  0  0  0  0  0  0  0  0  0
    0.0000    0.0000    0.0000 Cl  0  0  0  0  0  0  0  0  0  0  0  0
    0.0000    0.0000    0.0000 C   0  0  0  0  0  0  0  0  0  0  0  0
    0.0000    0.0000    0.0000 C   0  0  0  0  0  0  0  0  0  0  0  0
    0.0000    0.0000    0.0000 C   0  0  0  0  0  0  0  0  0  0  0  0
    0.0000    0.0000    0.0000 C   0  0  0  0  0  0  0  0  0  0  0  0
    0.0000    0.0000    0.0000 C   0  0  0  0  0  0  0  0  0  0  0  0
    0.0000    0.0000    0.0000 C   0  0  0  0  0  0  0  0  0  0  0  0
    0.0000    0.0000    0.0000 N   0  0  0  0  0  0  0  0  0  0  0  0
    0.0000    0.0000    0.0000 C   0  0  0  0  0  0  0  0  0  0  0  0
    0.0000    0.0000    0.0000 C   0  0  0  0  0  0  0  0  0  0  0  0
    0.0000    0.0000    0.0000 C   0  0  0  0  0  0  0  0  0  0  0  0
    0.0000    0.0000    0.0000 C   0  0  0  0  0  0  0  0  0  0  0  0
    0.0000    0.0000    0.0000 N   0  0  0  0  0  0  0  0  0  0  0  0
    0.0000    0.0000    0.0000 N   0  0  0  0  0  0  0  0  0  0  0  0
    0.0000    0.0000    0.0000 C   0  0  0  0  0  0  0  0  0  0  0  0
    0.0000    0.0000    0.0000 C   0  0  0  0  0  0  0  0  0  0  0  0
    0.0000    0.0000    0.0000 C   0  0  0  0  0  0  0  0  0  0  0  0
    0.0000    0.0000    0.0000 F   0  0  0  0  0  0  0  0  0  0  0  0
    0.0000    0.0000    0.0000 F   0  0  0  0  0  0  0  0  0  0  0  0
    0.0000    0.0000    0.0000 F   0  0  0  0  0  0  0  0  0  0  0  0
    0.0000    0.0000    0.0000 C   0  0  0  0  0  0  0  0  0  0  0  0
    0.0000    0.0000    0.0000 C   0  0  0  0  0  0  0  0  0  0  0  0
  1  2  1  0
  2  3  1  0
  3  4  1  0
  4  5  1  0
  5  6  1  0
  6  7  1  0
  7  8  2  0
  8  9  1  0
  9 10  2  0
 10 11  1  0
 11 12  1  0
 12 13  2  0
 12 14  1  0
 14 15  2  0
 15 16  1  0
 16 17  2  0
 17 18  1  0
 17 19  1  0
 19 20  2  0
 19 21  1  0
 21 22  3  0
 22 23  1  0
 23 24  2  0
 24 25  1  0
 25 26  2  0
 26 27  1  0
 27 28  2  0
 28 29  1  0
 29 30  2  0
 30 31  1  0
 10 32  1  0
 32 33  2  0
 33 34  1  0
 34 35  1  0
 34 36  1  0
 34 37  1  0
  5 38  1  0
 38 39  1  0
 39  2  1  0
 33  7  1  0
 20 14  1  0
 31 23  1  0
 31 26  1  0
M  END
>  <pIC50>  (301) 
7.39

>  <ChEMBL_ID>  (301) 
CHEMBL1173424

>  <document_journal>  (301) 
J. Med. Chem.

>  <bao_endpoint>  (301) 
BAO_0000190

>  <potential_duplicate>  (301) 
False

>  <uo_units>  (301) 
UO_0000065

>  <canonical_smiles>  (301) 
CN1CCN(Cc2ccc(NC(=O)c3ccc(Cl)c(c3)C#Cc4cnc5cccnn45)cc2C(F)(F)F)CC1

>  <parent_molecule_chembl_id>  (301) 
CHEMBL1173424

>  <assay_type>  (301) 
B

>  <src_id>  (301) 
1

>  <ligand_efficiency>  (301) 
{u'le': u'0.26', u'bei': u'13.36', u'sei': u'11.23', u'lle': u'2.33'}

>  <standard_flag>  (301) 
True

>  <molecule_chembl_id>  (301) 
CHEMBL1173424

>  <target_organism>  (301) 
Homo sapiens

>  <standard_units>  (301) 
nM

>  <record_id>  (301) 
924296

>  <document_chembl_id>  (301) 
CHEMBL1177713

>  <bao_format>  (301) 
BAO_0000357

>  <data_validity_description>  (301) 
None

>  <activity_id>  (301) 
3360203

>  <standard_type>  (301) 
IC50

>  <target_chembl_id>  (301) 
CHEMBL1862

>  <data_validity_comment>  (301) 
None

>  <published_value>  (301) 
41

>  <document_year>  (301) 
2010

>  <target_pref_name>  (301) 
Tyrosine-protein kinase ABL

>  <assay_chembl_id>  (301) 
CHEMBL1176860

>  <standard_relation>  (301) 
=

>  <assay_description>  (301) 
Inhibition of wild type human ABL after 1 hr by TR-FRET assay

>  <published_relation>  (301) 
=

>  <standard_value>  (301) 
41

>  <qudt_units>  (301) 
http://www.openphacts.org/units/Nanomolar

>  <target_tax_id>  (301) 
9606

>  <bao_label>  (301) 
single protein format

>  <published_units>  (301) 
nM

>  <pchembl_value>  (301) 
7.39

>  <published_type>  (301) 
IC50

>  <activity_comment>  (301) 
None

$$$$

     RDKit          

 39 43  0  0  0  0  0  0  0  0999 V2000
    0.0000    0.0000    0.0000 C   0  0  0  0  0  0  0  0  0  0  0  0
    0.0000    0.0000    0.0000 N   0  0  0  0  0  0  0  0  0  0  0  0
    0.0000    0.0000    0.0000 C   0  0  0  0  0  0  0  0  0  0  0  0
    0.0000    0.0000    0.0000 C   0  0  0  0  0  0  0  0  0  0  0  0
    0.0000    0.0000    0.0000 N   0  0  0  0  0  0  0  0  0  0  0  0
    0.0000    0.0000    0.0000 C   0  0  0  0  0  0  0  0  0  0  0  0
    0.0000    0.0000    0.0000 C   0  0  0  0  0  0  0  0  0  0  0  0
    0.0000    0.0000    0.0000 C   0  0  0  0  0  0  0  0  0  0  0  0
    0.0000    0.0000    0.0000 C   0  0  0  0  0  0  0  0  0  0  0  0
    0.0000    0.0000    0.0000 C   0  0  0  0  0  0  0  0  0  0  0  0
    0.0000    0.0000    0.0000 N   0  0  0  0  0  0  0  0  0  0  0  0
    0.0000    0.0000    0.0000 C   0  0  0  0  0  0  0  0  0  0  0  0
    0.0000    0.0000    0.0000 O   0  0  0  0  0  0  0  0  0  0  0  0
    0.0000    0.0000    0.0000 C   0  0  0  0  0  0  0  0  0  0  0  0
    0.0000    0.0000    0.0000 C   0  0  0  0  0  0  0  0  0  0  0  0
    0.0000    0.0000    0.0000 C   0  0  0  0  0  0  0  0  0  0  0  0
    0.0000    0.0000    0.0000 C   0  0  0  0  0  0  0  0  0  0  0  0
    0.0000    0.0000    0.0000 F   0  0  0  0  0  0  0  0  0  0  0  0
    0.0000    0.0000    0.0000 C   0  0  0  0  0  0  0  0  0  0  0  0
    0.0000    0.0000    0.0000 C   0  0  0  0  0  0  0  0  0  0  0  0
    0.0000    0.0000    0.0000 C   0  0  0  0  0  0  0  0  0  0  0  0
    0.0000    0.0000    0.0000 C   0  0  0  0  0  0  0  0  0  0  0  0
    0.0000    0.0000    0.0000 C   0  0  0  0  0  0  0  0  0  0  0  0
    0.0000    0.0000    0.0000 C   0  0  0  0  0  0  0  0  0  0  0  0
    0.0000    0.0000    0.0000 N   0  0  0  0  0  0  0  0  0  0  0  0
    0.0000    0.0000    0.0000 C   0  0  0  0  0  0  0  0  0  0  0  0
    0.0000    0.0000    0.0000 C   0  0  0  0  0  0  0  0  0  0  0  0
    0.0000    0.0000    0.0000 C   0  0  0  0  0  0  0  0  0  0  0  0
    0.0000    0.0000    0.0000 C   0  0  0  0  0  0  0  0  0  0  0  0
    0.0000    0.0000    0.0000 N   0  0  0  0  0  0  0  0  0  0  0  0
    0.0000    0.0000    0.0000 N   0  0  0  0  0  0  0  0  0  0  0  0
    0.0000    0.0000    0.0000 C   0  0  0  0  0  0  0  0  0  0  0  0
    0.0000    0.0000    0.0000 C   0  0  0  0  0  0  0  0  0  0  0  0
    0.0000    0.0000    0.0000 C   0  0  0  0  0  0  0  0  0  0  0  0
    0.0000    0.0000    0.0000 F   0  0  0  0  0  0  0  0  0  0  0  0
    0.0000    0.0000    0.0000 F   0  0  0  0  0  0  0  0  0  0  0  0
    0.0000    0.0000    0.0000 F   0  0  0  0  0  0  0  0  0  0  0  0
    0.0000    0.0000    0.0000 C   0  0  0  0  0  0  0  0  0  0  0  0
    0.0000    0.0000    0.0000 C   0  0  0  0  0  0  0  0  0  0  0  0
  1  2  1  0
  2  3  1  0
  3  4  1  0
  4  5  1  0
  5  6  1  0
  6  7  1  0
  7  8  2  0
  8  9  1  0
  9 10  2  0
 10 11  1  0
 11 12  1  0
 12 13  2  0
 12 14  1  0
 14 15  2  0
 15 16  1  0
 16 17  2  0
 17 18  1  0
 17 19  1  0
 19 20  2  0
 19 21  1  0
 21 22  3  0
 22 23  1  0
 23 24  2  0
 24 25  1  0
 25 26  2  0
 26 27  1  0
 27 28  2  0
 28 29  1  0
 29 30  2  0
 30 31  1  0
 10 32  1  0
 32 33  2  0
 33 34  1  0
 34 35  1  0
 34 36  1  0
 34 37  1  0
  5 38  1  0
 38 39  1  0
 39  2  1  0
 33  7  1  0
 20 14  1  0
 31 23  1  0
 31 26  1  0
M  END
>  <pIC50>  (302) 
7.38

>  <ChEMBL_ID>  (302) 
CHEMBL1173498

>  <document_journal>  (302) 
J. Med. Chem.

>  <bao_endpoint>  (302) 
BAO_0000190

>  <potential_duplicate>  (302) 
False

>  <uo_units>  (302) 
UO_0000065

>  <canonical_smiles>  (302) 
CN1CCN(Cc2ccc(NC(=O)c3ccc(F)c(c3)C#Cc4cnc5cccnn45)cc2C(F)(F)F)CC1

>  <parent_molecule_chembl_id>  (302) 
CHEMBL1173498

>  <assay_type>  (302) 
B

>  <src_id>  (302) 
1

>  <ligand_efficiency>  (302) 
{u'le': u'0.26', u'bei': u'13.75', u'sei': u'11.22', u'lle': u'2.78'}

>  <standard_flag>  (302) 
True

>  <molecule_chembl_id>  (302) 
CHEMBL1173498

>  <target_organism>  (302) 
Homo sapiens

>  <standard_units>  (302) 
nM

>  <record_id>  (302) 
924400

>  <document_chembl_id>  (302) 
CHEMBL1177713

>  <bao_format>  (302) 
BAO_0000357

>  <data_validity_description>  (302) 
None

>  <activity_id>  (302) 
3360204

>  <standard_type>  (302) 
IC50

>  <target_chembl_id>  (302) 
CHEMBL1862

>  <data_validity_comment>  (302) 
None

>  <published_value>  (302) 
42

>  <document_year>  (302) 
2010

>  <target_pref_name>  (302) 
Tyrosine-protein kinase ABL

>  <assay_chembl_id>  (302) 
CHEMBL1176860

>  <standard_relation>  (302) 
=

>  <assay_description>  (302) 
Inhibition of wild type human ABL after 1 hr by TR-FRET assay

>  <published_relation>  (302) 
=

>  <standard_value>  (302) 
42

>  <qudt_units>  (302) 
http://www.openphacts.org/units/Nanomolar

>  <target_tax_id>  (302) 
9606

>  <bao_label>  (302) 
single protein format

>  <published_units>  (302) 
nM

>  <pchembl_value>  (302) 
7.38

>  <published_type>  (302) 
IC50

>  <activity_comment>  (302) 
None

$$$$

     RDKit          

 36 40  0  0  0  0  0  0  0  0999 V2000
    0.0000    0.0000    0.0000 C   0  0  0  0  0  0  0  0  0  0  0  0
    0.0000    0.0000    0.0000 N   0  0  0  0  0  0  0  0  0  0  0  0
    0.0000    0.0000    0.0000 C   0  0  0  0  0  0  0  0  0  0  0  0
    0.0000    0.0000    0.0000 C   0  0  0  0  0  0  0  0  0  0  0  0
    0.0000    0.0000    0.0000 N   0  0  0  0  0  0  0  0  0  0  0  0
    0.0000    0.0000    0.0000 C   0  0  0  0  0  0  0  0  0  0  0  0
    0.0000    0.0000    0.0000 C   0  0  0  0  0  0  0  0  0  0  0  0
    0.0000    0.0000    0.0000 C   0  0  0  0  0  0  0  0  0  0  0  0
    0.0000    0.0000    0.0000 C   0  0  0  0  0  0  0  0  0  0  0  0
    0.0000    0.0000    0.0000 C   0  0  0  0  0  0  0  0  0  0  0  0
    0.0000    0.0000    0.0000 N   0  0  0  0  0  0  0  0  0  0  0  0
    0.0000    0.0000    0.0000 C   0  0  0  0  0  0  0  0  0  0  0  0
    0.0000    0.0000    0.0000 O   0  0  0  0  0  0  0  0  0  0  0  0
    0.0000    0.0000    0.0000 C   0  0  0  0  0  0  0  0  0  0  0  0
    0.0000    0.0000    0.0000 C   0  0  0  0  0  0  0  0  0  0  0  0
    0.0000    0.0000    0.0000 C   0  0  0  0  0  0  0  0  0  0  0  0
    0.0000    0.0000    0.0000 C   0  0  0  0  0  0  0  0  0  0  0  0
    0.0000    0.0000    0.0000 C   0  0  0  0  0  0  0  0  0  0  0  0
    0.0000    0.0000    0.0000 C   0  0  0  0  0  0  0  0  0  0  0  0
    0.0000    0.0000    0.0000 C   0  0  0  0  0  0  0  0  0  0  0  0
    0.0000    0.0000    0.0000 C   0  0  0  0  0  0  0  0  0  0  0  0
    0.0000    0.0000    0.0000 C   0  0  0  0  0  0  0  0  0  0  0  0
    0.0000    0.0000    0.0000 C   0  0  0  0  0  0  0  0  0  0  0  0
    0.0000    0.0000    0.0000 C   0  0  0  0  0  0  0  0  0  0  0  0
    0.0000    0.0000    0.0000 N   0  0  0  0  0  0  0  0  0  0  0  0
    0.0000    0.0000    0.0000 C   0  0  0  0  0  0  0  0  0  0  0  0
    0.0000    0.0000    0.0000 C   0  0  0  0  0  0  0  0  0  0  0  0
    0.0000    0.0000    0.0000 C   0  0  0  0  0  0  0  0  0  0  0  0
    0.0000    0.0000    0.0000 C   0  0  0  0  0  0  0  0  0  0  0  0
    0.0000    0.0000    0.0000 N   0  0  0  0  0  0  0  0  0  0  0  0
    0.0000    0.0000    0.0000 N   0  0  0  0  0  0  0  0  0  0  0  0
    0.0000    0.0000    0.0000 C   0  0  0  0  0  0  0  0  0  0  0  0
    0.0000    0.0000    0.0000 C   0  0  0  0  0  0  0  0  0  0  0  0
    0.0000    0.0000    0.0000 Cl  0  0  0  0  0  0  0  0  0  0  0  0
    0.0000    0.0000    0.0000 C   0  0  0  0  0  0  0  0  0  0  0  0
    0.0000    0.0000    0.0000 C   0  0  0  0  0  0  0  0  0  0  0  0
  1  2  1  0
  2  3  1  0
  3  4  1  0
  4  5  1  0
  5  6  1  0
  6  7  1  0
  7  8  2  0
  8  9  1  0
  9 10  2  0
 10 11  1  0
 11 12  1  0
 12 13  2  0
 12 14  1  0
 14 15  2  0
 15 16  1  0
 16 17  2  0
 17 18  1  0
 17 19  1  0
 19 20  2  0
 19 21  1  0
 21 22  3  0
 22 23  1  0
 23 24  2  0
 24 25  1  0
 25 26  2  0
 26 27  1  0
 27 28  2  0
 28 29  1  0
 29 30  2  0
 30 31  1  0
 10 32  1  0
 32 33  2  0
 33 34  1  0
  5 35  1  0
 35 36  1  0
 36  2  1  0
 33  7  1  0
 20 14  1  0
 31 23  1  0
 31 26  1  0
M  END
>  <pIC50>  (303) 
8.62

>  <ChEMBL_ID>  (303) 
CHEMBL1172718

>  <document_journal>  (303) 
J. Med. Chem.

>  <bao_endpoint>  (303) 
BAO_0000190

>  <potential_duplicate>  (303) 
False

>  <uo_units>  (303) 
UO_0000065

>  <canonical_smiles>  (303) 
CN1CCN(Cc2ccc(NC(=O)c3ccc(C)c(c3)C#Cc4cnc5cccnn45)cc2Cl)CC1

>  <parent_molecule_chembl_id>  (303) 
CHEMBL1172718

>  <assay_type>  (303) 
B

>  <src_id>  (303) 
1

>  <ligand_efficiency>  (303) 
{u'le': u'0.33', u'bei': u'17.27', u'sei': u'13.11', u'lle': u'4.01'}

>  <standard_flag>  (303) 
True

>  <molecule_chembl_id>  (303) 
CHEMBL1172718

>  <target_organism>  (303) 
Homo sapiens

>  <standard_units>  (303) 
nM

>  <record_id>  (303) 
924401

>  <document_chembl_id>  (303) 
CHEMBL1177713

>  <bao_format>  (303) 
BAO_0000357

>  <data_validity_description>  (303) 
None

>  <activity_id>  (303) 
3360205

>  <standard_type>  (303) 
IC50

>  <target_chembl_id>  (303) 
CHEMBL1862

>  <data_validity_comment>  (303) 
None

>  <published_value>  (303) 
2.4

>  <document_year>  (303) 
2010

>  <target_pref_name>  (303) 
Tyrosine-protein kinase ABL

>  <assay_chembl_id>  (303) 
CHEMBL1176860

>  <standard_relation>  (303) 
=

>  <assay_description>  (303) 
Inhibition of wild type human ABL after 1 hr by TR-FRET assay

>  <published_relation>  (303) 
=

>  <standard_value>  (303) 
2.4

>  <qudt_units>  (303) 
http://www.openphacts.org/units/Nanomolar

>  <target_tax_id>  (303) 
9606

>  <bao_label>  (303) 
single protein format

>  <published_units>  (303) 
nM

>  <pchembl_value>  (303) 
8.62

>  <published_type>  (303) 
IC50

>  <activity_comment>  (303) 
None

$$$$

     RDKit          

 38 43  0  0  0  0  0  0  0  0999 V2000
    0.0000    0.0000    0.0000 C   0  0  0  0  0  0  0  0  0  0  0  0
    0.0000    0.0000    0.0000 N   0  0  0  0  0  0  0  0  0  0  0  0
    0.0000    0.0000    0.0000 C   0  0  0  0  0  0  0  0  0  0  0  0
    0.0000    0.0000    0.0000 C   0  0  0  0  0  0  0  0  0  0  0  0
    0.0000    0.0000    0.0000 N   0  0  0  0  0  0  0  0  0  0  0  0
    0.0000    0.0000    0.0000 C   0  0  0  0  0  0  0  0  0  0  0  0
    0.0000    0.0000    0.0000 C   0  0  0  0  0  0  0  0  0  0  0  0
    0.0000    0.0000    0.0000 C   0  0  0  0  0  0  0  0  0  0  0  0
    0.0000    0.0000    0.0000 C   0  0  0  0  0  0  0  0  0  0  0  0
    0.0000    0.0000    0.0000 C   0  0  0  0  0  0  0  0  0  0  0  0
    0.0000    0.0000    0.0000 N   0  0  0  0  0  0  0  0  0  0  0  0
    0.0000    0.0000    0.0000 C   0  0  0  0  0  0  0  0  0  0  0  0
    0.0000    0.0000    0.0000 O   0  0  0  0  0  0  0  0  0  0  0  0
    0.0000    0.0000    0.0000 C   0  0  0  0  0  0  0  0  0  0  0  0
    0.0000    0.0000    0.0000 C   0  0  0  0  0  0  0  0  0  0  0  0
    0.0000    0.0000    0.0000 C   0  0  0  0  0  0  0  0  0  0  0  0
    0.0000    0.0000    0.0000 C   0  0  0  0  0  0  0  0  0  0  0  0
    0.0000    0.0000    0.0000 C   0  0  0  0  0  0  0  0  0  0  0  0
    0.0000    0.0000    0.0000 C   0  0  0  0  0  0  0  0  0  0  0  0
    0.0000    0.0000    0.0000 C   0  0  0  0  0  0  0  0  0  0  0  0
    0.0000    0.0000    0.0000 C   0  0  0  0  0  0  0  0  0  0  0  0
    0.0000    0.0000    0.0000 C   0  0  0  0  0  0  0  0  0  0  0  0
    0.0000    0.0000    0.0000 C   0  0  0  0  0  0  0  0  0  0  0  0
    0.0000    0.0000    0.0000 C   0  0  0  0  0  0  0  0  0  0  0  0
    0.0000    0.0000    0.0000 N   0  0  0  0  0  0  0  0  0  0  0  0
    0.0000    0.0000    0.0000 C   0  0  0  0  0  0  0  0  0  0  0  0
    0.0000    0.0000    0.0000 C   0  0  0  0  0  0  0  0  0  0  0  0
    0.0000    0.0000    0.0000 C   0  0  0  0  0  0  0  0  0  0  0  0
    0.0000    0.0000    0.0000 C   0  0  0  0  0  0  0  0  0  0  0  0
    0.0000    0.0000    0.0000 N   0  0  0  0  0  0  0  0  0  0  0  0
    0.0000    0.0000    0.0000 N   0  0  0  0  0  0  0  0  0  0  0  0
    0.0000    0.0000    0.0000 C   0  0  0  0  0  0  0  0  0  0  0  0
    0.0000    0.0000    0.0000 C   0  0  0  0  0  0  0  0  0  0  0  0
    0.0000    0.0000    0.0000 C   0  0  0  0  0  0  0  0  0  0  0  0
    0.0000    0.0000    0.0000 C   0  0  0  0  0  0  0  0  0  0  0  0
    0.0000    0.0000    0.0000 C   0  0  0  0  0  0  0  0  0  0  0  0
    0.0000    0.0000    0.0000 C   0  0  0  0  0  0  0  0  0  0  0  0
    0.0000    0.0000    0.0000 C   0  0  0  0  0  0  0  0  0  0  0  0
  1  2  1  0
  2  3  1  0
  3  4  1  0
  4  5  1  0
  5  6  1  0
  6  7  1  0
  7  8  2  0
  8  9  1  0
  9 10  2  0
 10 11  1  0
 11 12  1  0
 12 13  2  0
 12 14  1  0
 14 15  2  0
 15 16  1  0
 16 17  2  0
 17 18  1  0
 17 19  1  0
 19 20  2  0
 19 21  1  0
 21 22  3  0
 22 23  1  0
 23 24  2  0
 24 25  1  0
 25 26  2  0
 26 27  1  0
 27 28  2  0
 28 29  1  0
 29 30  2  0
 30 31  1  0
 10 32  1  0
 32 33  2  0
 33 34  1  0
 34 35  1  0
 35 36  1  0
  5 37  1  0
 37 38  1  0
 38  2  1  0
 33  7  1  0
 20 14  1  0
 31 23  1  0
 31 26  1  0
 36 34  1  0
M  END
>  <pIC50>  (304) 
8.28

>  <ChEMBL_ID>  (304) 
CHEMBL1172719

>  <document_journal>  (304) 
J. Med. Chem.

>  <bao_endpoint>  (304) 
BAO_0000190

>  <potential_duplicate>  (304) 
False

>  <uo_units>  (304) 
UO_0000065

>  <canonical_smiles>  (304) 
CN1CCN(Cc2ccc(NC(=O)c3ccc(C)c(c3)C#Cc4cnc5cccnn45)cc2C6CC6)CC1

>  <parent_molecule_chembl_id>  (304) 
CHEMBL1172719

>  <assay_type>  (304) 
B

>  <src_id>  (304) 
1

>  <ligand_efficiency>  (304) 
{u'le': u'0.3', u'bei': u'16.4', u'sei': u'12.58', u'lle': u'3.52'}

>  <standard_flag>  (304) 
True

>  <molecule_chembl_id>  (304) 
CHEMBL1172719

>  <target_organism>  (304) 
Homo sapiens

>  <standard_units>  (304) 
nM

>  <record_id>  (304) 
924402

>  <document_chembl_id>  (304) 
CHEMBL1177713

>  <bao_format>  (304) 
BAO_0000357

>  <data_validity_description>  (304) 
None

>  <activity_id>  (304) 
3360206

>  <standard_type>  (304) 
IC50

>  <target_chembl_id>  (304) 
CHEMBL1862

>  <data_validity_comment>  (304) 
None

>  <published_value>  (304) 
5.3

>  <document_year>  (304) 
2010

>  <target_pref_name>  (304) 
Tyrosine-protein kinase ABL

>  <assay_chembl_id>  (304) 
CHEMBL1176860

>  <standard_relation>  (304) 
=

>  <assay_description>  (304) 
Inhibition of wild type human ABL after 1 hr by TR-FRET assay

>  <published_relation>  (304) 
=

>  <standard_value>  (304) 
5.3

>  <qudt_units>  (304) 
http://www.openphacts.org/units/Nanomolar

>  <target_tax_id>  (304) 
9606

>  <bao_label>  (304) 
single protein format

>  <published_units>  (304) 
nM

>  <pchembl_value>  (304) 
8.28

>  <published_type>  (304) 
IC50

>  <activity_comment>  (304) 
None

$$$$

     RDKit          

 31 34  0  0  0  0  0  0  0  0999 V2000
    0.0000    0.0000    0.0000 C   0  0  0  0  0  0  0  0  0  0  0  0
    0.0000    0.0000    0.0000 C   0  0  0  0  0  0  0  0  0  0  0  0
    0.0000    0.0000    0.0000 C   0  0  0  0  0  0  0  0  0  0  0  0
    0.0000    0.0000    0.0000 C   0  0  0  0  0  0  0  0  0  0  0  0
    0.0000    0.0000    0.0000 C   0  0  0  0  0  0  0  0  0  0  0  0
    0.0000    0.0000    0.0000 C   0  0  0  0  0  0  0  0  0  0  0  0
    0.0000    0.0000    0.0000 C   0  0  0  0  0  0  0  0  0  0  0  0
    0.0000    0.0000    0.0000 C   0  0  0  0  0  0  0  0  0  0  0  0
    0.0000    0.0000    0.0000 C   0  0  0  0  0  0  0  0  0  0  0  0
    0.0000    0.0000    0.0000 C   0  0  0  0  0  0  0  0  0  0  0  0
    0.0000    0.0000    0.0000 C   0  0  0  0  0  0  0  0  0  0  0  0
    0.0000    0.0000    0.0000 N   0  0  0  0  0  0  0  0  0  0  0  0
    0.0000    0.0000    0.0000 C   0  0  0  0  0  0  0  0  0  0  0  0
    0.0000    0.0000    0.0000 C   0  0  0  0  0  0  0  0  0  0  0  0
    0.0000    0.0000    0.0000 C   0  0  0  0  0  0  0  0  0  0  0  0
    0.0000    0.0000    0.0000 C   0  0  0  0  0  0  0  0  0  0  0  0
    0.0000    0.0000    0.0000 N   0  0  0  0  0  0  0  0  0  0  0  0
    0.0000    0.0000    0.0000 N   0  0  0  0  0  0  0  0  0  0  0  0
    0.0000    0.0000    0.0000 C   0  0  0  0  0  0  0  0  0  0  0  0
    0.0000    0.0000    0.0000 O   0  0  0  0  0  0  0  0  0  0  0  0
    0.0000    0.0000    0.0000 N   0  0  0  0  0  0  0  0  0  0  0  0
    0.0000    0.0000    0.0000 C   0  0  0  0  0  0  0  0  0  0  0  0
    0.0000    0.0000    0.0000 C   0  0  0  0  0  0  0  0  0  0  0  0
    0.0000    0.0000    0.0000 C   0  0  0  0  0  0  0  0  0  0  0  0
    0.0000    0.0000    0.0000 C   0  0  0  0  0  0  0  0  0  0  0  0
    0.0000    0.0000    0.0000 C   0  0  0  0  0  0  0  0  0  0  0  0
    0.0000    0.0000    0.0000 C   0  0  0  0  0  0  0  0  0  0  0  0
    0.0000    0.0000    0.0000 C   0  0  0  0  0  0  0  0  0  0  0  0
    0.0000    0.0000    0.0000 F   0  0  0  0  0  0  0  0  0  0  0  0
    0.0000    0.0000    0.0000 F   0  0  0  0  0  0  0  0  0  0  0  0
    0.0000    0.0000    0.0000 F   0  0  0  0  0  0  0  0  0  0  0  0
  1  2  1  0
  2  3  2  0
  3  4  1  0
  4  5  2  0
  5  6  1  0
  6  7  2  0
  7  8  1  0
  8  9  3  0
  9 10  1  0
 10 11  2  0
 11 12  1  0
 12 13  2  0
 13 14  1  0
 14 15  2  0
 15 16  1  0
 16 17  2  0
 17 18  1  0
  5 19  1  0
 19 20  2  0
 19 21  1  0
 21 22  1  0
 22 23  2  0
 23 24  1  0
 24 25  2  0
 25 26  1  0
 26 27  2  0
 26 28  1  0
 28 29  1  0
 28 30  1  0
 28 31  1  0
  7  2  1  0
 18 10  1  0
 18 13  1  0
 27 22  1  0
M  END
>  <pIC50>  (305) 
7.72

>  <ChEMBL_ID>  (305) 
CHEMBL1172720

>  <document_journal>  (305) 
J. Med. Chem.

>  <bao_endpoint>  (305) 
BAO_0000190

>  <potential_duplicate>  (305) 
False

>  <uo_units>  (305) 
UO_0000065

>  <canonical_smiles>  (305) 
Cc1ccc(cc1C#Cc2cnc3cccnn23)C(=O)Nc4cccc(c4)C(F)(F)F

>  <parent_molecule_chembl_id>  (305) 
CHEMBL1172720

>  <assay_type>  (305) 
B

>  <src_id>  (305) 
1

>  <ligand_efficiency>  (305) 
{u'le': u'0.34', u'bei': u'18.37', u'sei': u'13.02', u'lle': u'2.87'}

>  <standard_flag>  (305) 
True

>  <molecule_chembl_id>  (305) 
CHEMBL1172720

>  <target_organism>  (305) 
Homo sapiens

>  <standard_units>  (305) 
nM

>  <record_id>  (305) 
924403

>  <document_chembl_id>  (305) 
CHEMBL1177713

>  <bao_format>  (305) 
BAO_0000357

>  <data_validity_description>  (305) 
None

>  <activity_id>  (305) 
3360207

>  <standard_type>  (305) 
IC50

>  <target_chembl_id>  (305) 
CHEMBL1862

>  <data_validity_comment>  (305) 
None

>  <published_value>  (305) 
19

>  <document_year>  (305) 
2010

>  <target_pref_name>  (305) 
Tyrosine-protein kinase ABL

>  <assay_chembl_id>  (305) 
CHEMBL1176860

>  <standard_relation>  (305) 
=

>  <assay_description>  (305) 
Inhibition of wild type human ABL after 1 hr by TR-FRET assay

>  <published_relation>  (305) 
=

>  <standard_value>  (305) 
19

>  <qudt_units>  (305) 
http://www.openphacts.org/units/Nanomolar

>  <target_tax_id>  (305) 
9606

>  <bao_label>  (305) 
single protein format

>  <published_units>  (305) 
nM

>  <pchembl_value>  (305) 
7.72

>  <published_type>  (305) 
IC50

>  <activity_comment>  (305) 
None

$$$$

     RDKit          

 39 43  0  0  0  0  0  0  0  0999 V2000
    0.0000    0.0000    0.0000 C   0  0  0  0  0  0  0  0  0  0  0  0
    0.0000    0.0000    0.0000 N   0  0  0  0  0  0  0  0  0  0  0  0
    0.0000    0.0000    0.0000 C   0  0  0  0  0  0  0  0  0  0  0  0
    0.0000    0.0000    0.0000 C   0  0  0  0  0  0  0  0  0  0  0  0
    0.0000    0.0000    0.0000 N   0  0  0  0  0  0  0  0  0  0  0  0
    0.0000    0.0000    0.0000 C   0  0  0  0  0  0  0  0  0  0  0  0
    0.0000    0.0000    0.0000 C   0  0  0  0  0  0  0  0  0  0  0  0
    0.0000    0.0000    0.0000 C   0  0  0  0  0  0  0  0  0  0  0  0
    0.0000    0.0000    0.0000 C   0  0  0  0  0  0  0  0  0  0  0  0
    0.0000    0.0000    0.0000 C   0  0  0  0  0  0  0  0  0  0  0  0
    0.0000    0.0000    0.0000 N   0  0  0  0  0  0  0  0  0  0  0  0
    0.0000    0.0000    0.0000 C   0  0  0  0  0  0  0  0  0  0  0  0
    0.0000    0.0000    0.0000 O   0  0  0  0  0  0  0  0  0  0  0  0
    0.0000    0.0000    0.0000 C   0  0  0  0  0  0  0  0  0  0  0  0
    0.0000    0.0000    0.0000 C   0  0  0  0  0  0  0  0  0  0  0  0
    0.0000    0.0000    0.0000 C   0  0  0  0  0  0  0  0  0  0  0  0
    0.0000    0.0000    0.0000 C   0  0  0  0  0  0  0  0  0  0  0  0
    0.0000    0.0000    0.0000 C   0  0  0  0  0  0  0  0  0  0  0  0
    0.0000    0.0000    0.0000 C   0  0  0  0  0  0  0  0  0  0  0  0
    0.0000    0.0000    0.0000 C   0  0  0  0  0  0  0  0  0  0  0  0
    0.0000    0.0000    0.0000 C   0  0  0  0  0  0  0  0  0  0  0  0
    0.0000    0.0000    0.0000 C   0  0  0  0  0  0  0  0  0  0  0  0
    0.0000    0.0000    0.0000 C   0  0  0  0  0  0  0  0  0  0  0  0
    0.0000    0.0000    0.0000 N   0  0  0  0  0  0  0  0  0  0  0  0
    0.0000    0.0000    0.0000 C   0  0  0  0  0  0  0  0  0  0  0  0
    0.0000    0.0000    0.0000 C   0  0  0  0  0  0  0  0  0  0  0  0
    0.0000    0.0000    0.0000 C   0  0  0  0  0  0  0  0  0  0  0  0
    0.0000    0.0000    0.0000 C   0  0  0  0  0  0  0  0  0  0  0  0
    0.0000    0.0000    0.0000 N   0  0  0  0  0  0  0  0  0  0  0  0
    0.0000    0.0000    0.0000 N   0  0  0  0  0  0  0  0  0  0  0  0
    0.0000    0.0000    0.0000 C   0  0  0  0  0  0  0  0  0  0  0  0
    0.0000    0.0000    0.0000 C   0  0  0  0  0  0  0  0  0  0  0  0
    0.0000    0.0000    0.0000 C   0  0  0  0  0  0  0  0  0  0  0  0
    0.0000    0.0000    0.0000 C   0  0  0  0  0  0  0  0  0  0  0  0
    0.0000    0.0000    0.0000 F   0  0  0  0  0  0  0  0  0  0  0  0
    0.0000    0.0000    0.0000 F   0  0  0  0  0  0  0  0  0  0  0  0
    0.0000    0.0000    0.0000 F   0  0  0  0  0  0  0  0  0  0  0  0
    0.0000    0.0000    0.0000 C   0  0  0  0  0  0  0  0  0  0  0  0
    0.0000    0.0000    0.0000 C   0  0  0  0  0  0  0  0  0  0  0  0
  1  2  1  0
  2  3  1  0
  3  4  1  0
  4  5  1  0
  5  6  1  0
  6  7  1  0
  7  8  2  0
  8  9  1  0
  9 10  2  0
 10 11  1  0
 11 12  1  0
 12 13  2  0
 12 14  1  0
 14 15  2  0
 15 16  1  0
 16 17  2  0
 17 18  1  0
 17 19  1  0
 19 20  1  0
 20 21  1  0
 21 22  1  0
 22 23  2  0
 23 24  1  0
 24 25  2  0
 25 26  1  0
 26 27  2  0
 27 28  1  0
 28 29  2  0
 29 30  1  0
 19 31  2  0
 10 32  1  0
 32 33  2  0
 33 34  1  0
 34 35  1  0
 34 36  1  0
 34 37  1  0
  5 38  1  0
 38 39  1  0
 39  2  1  0
 33  7  1  0
 31 14  1  0
 30 22  1  0
 30 25  1  0
M  END
>  <pIC50>  (306) 
7.72

>  <ChEMBL_ID>  (306) 
CHEMBL1173200

>  <document_journal>  (306) 
J. Med. Chem.

>  <bao_endpoint>  (306) 
BAO_0000190

>  <potential_duplicate>  (306) 
False

>  <uo_units>  (306) 
UO_0000065

>  <canonical_smiles>  (306) 
CN1CCN(Cc2ccc(NC(=O)c3ccc(C)c(CCc4cnc5cccnn45)c3)cc2C(F)(F)F)CC1

>  <parent_molecule_chembl_id>  (306) 
CHEMBL1173200

>  <assay_type>  (306) 
B

>  <src_id>  (306) 
1

>  <ligand_efficiency>  (306) 
{u'le': u'0.27', u'bei': u'14.39', u'sei': u'11.74', u'lle': u'2.93'}

>  <standard_flag>  (306) 
True

>  <molecule_chembl_id>  (306) 
CHEMBL1173200

>  <target_organism>  (306) 
Homo sapiens

>  <standard_units>  (306) 
nM

>  <record_id>  (306) 
924480

>  <document_chembl_id>  (306) 
CHEMBL1177713

>  <bao_format>  (306) 
BAO_0000357

>  <data_validity_description>  (306) 
None

>  <activity_id>  (306) 
3360208

>  <standard_type>  (306) 
IC50

>  <target_chembl_id>  (306) 
CHEMBL1862

>  <data_validity_comment>  (306) 
None

>  <published_value>  (306) 
19

>  <document_year>  (306) 
2010

>  <target_pref_name>  (306) 
Tyrosine-protein kinase ABL

>  <assay_chembl_id>  (306) 
CHEMBL1176860

>  <standard_relation>  (306) 
=

>  <assay_description>  (306) 
Inhibition of wild type human ABL after 1 hr by TR-FRET assay

>  <published_relation>  (306) 
=

>  <standard_value>  (306) 
19

>  <qudt_units>  (306) 
http://www.openphacts.org/units/Nanomolar

>  <target_tax_id>  (306) 
9606

>  <bao_label>  (306) 
single protein format

>  <published_units>  (306) 
nM

>  <pchembl_value>  (306) 
7.72

>  <published_type>  (306) 
IC50

>  <activity_comment>  (306) 
None

$$$$

     RDKit          

 39 43  0  0  0  0  0  0  0  0999 V2000
    0.0000    0.0000    0.0000 C   0  0  0  0  0  0  0  0  0  0  0  0
    0.0000    0.0000    0.0000 N   0  0  0  0  0  0  0  0  0  0  0  0
    0.0000    0.0000    0.0000 C   0  0  0  0  0  0  0  0  0  0  0  0
    0.0000    0.0000    0.0000 C   0  0  0  0  0  0  0  0  0  0  0  0
    0.0000    0.0000    0.0000 N   0  0  0  0  0  0  0  0  0  0  0  0
    0.0000    0.0000    0.0000 C   0  0  0  0  0  0  0  0  0  0  0  0
    0.0000    0.0000    0.0000 C   0  0  0  0  0  0  0  0  0  0  0  0
    0.0000    0.0000    0.0000 C   0  0  0  0  0  0  0  0  0  0  0  0
    0.0000    0.0000    0.0000 C   0  0  0  0  0  0  0  0  0  0  0  0
    0.0000    0.0000    0.0000 C   0  0  0  0  0  0  0  0  0  0  0  0
    0.0000    0.0000    0.0000 N   0  0  0  0  0  0  0  0  0  0  0  0
    0.0000    0.0000    0.0000 C   0  0  0  0  0  0  0  0  0  0  0  0
    0.0000    0.0000    0.0000 O   0  0  0  0  0  0  0  0  0  0  0  0
    0.0000    0.0000    0.0000 C   0  0  0  0  0  0  0  0  0  0  0  0
    0.0000    0.0000    0.0000 C   0  0  0  0  0  0  0  0  0  0  0  0
    0.0000    0.0000    0.0000 C   0  0  0  0  0  0  0  0  0  0  0  0
    0.0000    0.0000    0.0000 C   0  0  0  0  0  0  0  0  0  0  0  0
    0.0000    0.0000    0.0000 C   0  0  0  0  0  0  0  0  0  0  0  0
    0.0000    0.0000    0.0000 C   0  0  0  0  0  0  0  0  0  0  0  0
    0.0000    0.0000    0.0000 C   0  0  0  0  0  0  0  0  0  0  0  0
    0.0000    0.0000    0.0000 C   0  0  0  0  0  0  0  0  0  0  0  0
    0.0000    0.0000    0.0000 C   0  0  0  0  0  0  0  0  0  0  0  0
    0.0000    0.0000    0.0000 C   0  0  0  0  0  0  0  0  0  0  0  0
    0.0000    0.0000    0.0000 N   0  0  0  0  0  0  0  0  0  0  0  0
    0.0000    0.0000    0.0000 C   0  0  0  0  0  0  0  0  0  0  0  0
    0.0000    0.0000    0.0000 C   0  0  0  0  0  0  0  0  0  0  0  0
    0.0000    0.0000    0.0000 C   0  0  0  0  0  0  0  0  0  0  0  0
    0.0000    0.0000    0.0000 C   0  0  0  0  0  0  0  0  0  0  0  0
    0.0000    0.0000    0.0000 N   0  0  0  0  0  0  0  0  0  0  0  0
    0.0000    0.0000    0.0000 N   0  0  0  0  0  0  0  0  0  0  0  0
    0.0000    0.0000    0.0000 C   0  0  0  0  0  0  0  0  0  0  0  0
    0.0000    0.0000    0.0000 C   0  0  0  0  0  0  0  0  0  0  0  0
    0.0000    0.0000    0.0000 C   0  0  0  0  0  0  0  0  0  0  0  0
    0.0000    0.0000    0.0000 C   0  0  0  0  0  0  0  0  0  0  0  0
    0.0000    0.0000    0.0000 F   0  0  0  0  0  0  0  0  0  0  0  0
    0.0000    0.0000    0.0000 F   0  0  0  0  0  0  0  0  0  0  0  0
    0.0000    0.0000    0.0000 F   0  0  0  0  0  0  0  0  0  0  0  0
    0.0000    0.0000    0.0000 C   0  0  0  0  0  0  0  0  0  0  0  0
    0.0000    0.0000    0.0000 C   0  0  0  0  0  0  0  0  0  0  0  0
  1  2  1  0
  2  3  1  0
  3  4  1  0
  4  5  1  0
  5  6  1  0
  6  7  1  0
  7  8  2  0
  8  9  1  0
  9 10  2  0
 10 11  1  0
 11 12  1  0
 12 13  2  0
 12 14  1  0
 14 15  2  0
 15 16  1  0
 16 17  2  0
 17 18  1  0
 17 19  1  0
 19 20  1  0
 20 21  2  0
 21 22  1  0
 22 23  2  0
 23 24  1  0
 24 25  2  0
 25 26  1  0
 26 27  2  0
 27 28  1  0
 28 29  2  0
 29 30  1  0
 19 31  2  0
 10 32  1  0
 32 33  2  0
 33 34  1  0
 34 35  1  0
 34 36  1  0
 34 37  1  0
  5 38  1  0
 38 39  1  0
 39  2  1  0
 33  7  1  0
 31 14  1  0
 30 22  1  0
 30 25  1  0
M  END
>  <pIC50>  (307) 
7.27

>  <ChEMBL_ID>  (307) 
CHEMBL1173201

>  <document_journal>  (307) 
J. Med. Chem.

>  <bao_endpoint>  (307) 
BAO_0000190

>  <potential_duplicate>  (307) 
False

>  <uo_units>  (307) 
UO_0000065

>  <canonical_smiles>  (307) 
CN1CCN(Cc2ccc(NC(=O)c3ccc(C)c(\C=C\c4cnc5cccnn45)c3)cc2C(F)(F)F)CC1

>  <parent_molecule_chembl_id>  (307) 
CHEMBL1173201

>  <assay_type>  (307) 
B

>  <src_id>  (307) 
1

>  <ligand_efficiency>  (307) 
{u'le': u'0.25', u'bei': u'13.59', u'sei': u'11.05', u'lle': u'2.51'}

>  <standard_flag>  (307) 
True

>  <molecule_chembl_id>  (307) 
CHEMBL1173201

>  <target_organism>  (307) 
Homo sapiens

>  <standard_units>  (307) 
nM

>  <record_id>  (307) 
924481

>  <document_chembl_id>  (307) 
CHEMBL1177713

>  <bao_format>  (307) 
BAO_0000357

>  <data_validity_description>  (307) 
None

>  <activity_id>  (307) 
3360209

>  <standard_type>  (307) 
IC50

>  <target_chembl_id>  (307) 
CHEMBL1862

>  <data_validity_comment>  (307) 
None

>  <published_value>  (307) 
54

>  <document_year>  (307) 
2010

>  <target_pref_name>  (307) 
Tyrosine-protein kinase ABL

>  <assay_chembl_id>  (307) 
CHEMBL1176860

>  <standard_relation>  (307) 
=

>  <assay_description>  (307) 
Inhibition of wild type human ABL after 1 hr by TR-FRET assay

>  <published_relation>  (307) 
=

>  <standard_value>  (307) 
54

>  <qudt_units>  (307) 
http://www.openphacts.org/units/Nanomolar

>  <target_tax_id>  (307) 
9606

>  <bao_label>  (307) 
single protein format

>  <published_units>  (307) 
nM

>  <pchembl_value>  (307) 
7.27

>  <published_type>  (307) 
IC50

>  <activity_comment>  (307) 
None

$$$$

     RDKit          

 40 44  0  0  0  0  0  0  0  0999 V2000
    0.0000    0.0000    0.0000 C   0  0  0  0  0  0  0  0  0  0  0  0
    0.0000    0.0000    0.0000 N   0  0  0  0  0  0  0  0  0  0  0  0
    0.0000    0.0000    0.0000 C   0  0  0  0  0  0  0  0  0  0  0  0
    0.0000    0.0000    0.0000 O   0  0  0  0  0  0  0  0  0  0  0  0
    0.0000    0.0000    0.0000 N   0  0  0  0  0  0  0  0  0  0  0  0
    0.0000    0.0000    0.0000 C   0  0  0  0  0  0  0  0  0  0  0  0
    0.0000    0.0000    0.0000 C   0  0  0  0  0  0  0  0  0  0  0  0
    0.0000    0.0000    0.0000 C   0  0  0  0  0  0  0  0  0  0  0  0
    0.0000    0.0000    0.0000 N   0  0  0  0  0  0  0  0  0  0  0  0
    0.0000    0.0000    0.0000 C   0  0  0  0  0  0  0  0  0  0  0  0
    0.0000    0.0000    0.0000 N   0  0  0  0  0  0  0  0  0  0  0  0
    0.0000    0.0000    0.0000 C   0  0  0  0  0  0  0  0  0  0  0  0
    0.0000    0.0000    0.0000 C   0  0  0  0  0  0  0  0  0  0  0  0
    0.0000    0.0000    0.0000 C   0  0  0  0  0  0  0  0  0  0  0  0
    0.0000    0.0000    0.0000 C   0  0  0  0  0  0  0  0  0  0  0  0
    0.0000    0.0000    0.0000 C   0  0  0  0  0  0  0  0  0  0  0  0
    0.0000    0.0000    0.0000 N   0  0  0  0  0  0  0  0  0  0  0  0
    0.0000    0.0000    0.0000 C   0  0  0  0  0  0  0  0  0  0  0  0
    0.0000    0.0000    0.0000 N   0  0  0  0  0  0  0  0  0  0  0  0
    0.0000    0.0000    0.0000 C   0  0  0  0  0  0  0  0  0  0  0  0
    0.0000    0.0000    0.0000 C   0  0  0  0  0  0  0  0  0  0  0  0
    0.0000    0.0000    0.0000 C   0  0  0  0  0  0  0  0  0  0  0  0
    0.0000    0.0000    0.0000 C   0  0  0  0  0  0  0  0  0  0  0  0
    0.0000    0.0000    0.0000 N   0  0  0  0  0  0  0  0  0  0  0  0
    0.0000    0.0000    0.0000 C   0  0  0  0  0  0  0  0  0  0  0  0
    0.0000    0.0000    0.0000 O   0  0  0  0  0  0  0  0  0  0  0  0
    0.0000    0.0000    0.0000 C   0  0  0  0  0  0  0  0  0  0  0  0
    0.0000    0.0000    0.0000 C   0  0  0  0  0  0  0  0  0  0  0  0
    0.0000    0.0000    0.0000 C   0  0  0  0  0  0  0  0  0  0  0  0
    0.0000    0.0000    0.0000 C   0  0  0  0  0  0  0  0  0  0  0  0
    0.0000    0.0000    0.0000 C   0  0  0  0  0  0  0  0  0  0  0  0
    0.0000    0.0000    0.0000 C   0  0  0  0  0  0  0  0  0  0  0  0
    0.0000    0.0000    0.0000 C   0  0  0  0  0  0  0  0  0  0  0  0
    0.0000    0.0000    0.0000 F   0  0  0  0  0  0  0  0  0  0  0  0
    0.0000    0.0000    0.0000 F   0  0  0  0  0  0  0  0  0  0  0  0
    0.0000    0.0000    0.0000 F   0  0  0  0  0  0  0  0  0  0  0  0
    0.0000    0.0000    0.0000 C   0  0  0  0  0  0  0  0  0  0  0  0
    0.0000    0.0000    0.0000 C   0  0  0  0  0  0  0  0  0  0  0  0
    0.0000    0.0000    0.0000 C   0  0  0  0  0  0  0  0  0  0  0  0
    0.0000    0.0000    0.0000 C   0  0  0  0  0  0  0  0  0  0  0  0
  1  2  1  0
  2  3  1  0
  3  4  2  0
  3  5  1  0
  5  6  1  0
  6  7  1  0
  7  8  2  0
  8  9  1  0
  9 10  2  0
 10 11  1  0
 11 12  1  0
 12 13  2  0
 13 14  1  0
 14 15  2  0
 15 16  1  0
 15 17  1  0
 17 18  2  0
 10 19  1  0
 19 20  2  0
  5 21  1  0
 21 22  2  0
 22 23  1  0
 23 24  1  0
 24 25  1  0
 25 26  2  0
 25 27  1  0
 27 28  2  0
 28 29  1  0
 29 30  2  0
 30 31  1  0
 31 32  2  0
 31 33  1  0
 33 34  1  0
 33 35  1  0
 33 36  1  0
 23 37  2  0
 37 38  1  0
 38 39  2  0
 39 40  1  0
 20  2  1  0
 20  7  1  0
 18 12  1  0
 39 21  1  0
 32 27  1  0
M  END
>  <pIC50>  (308) 
6.88

>  <ChEMBL_ID>  (308) 
CHEMBL1214141

>  <document_journal>  (308) 
J. Med. Chem.

>  <bao_endpoint>  (308) 
BAO_0000190

>  <potential_duplicate>  (308) 
False

>  <uo_units>  (308) 
UO_0000065

>  <canonical_smiles>  (308) 
CN1C(=O)N(Cc2cnc(Nc3ccc(C)nc3)nc12)c4cc(NC(=O)c5cccc(c5)C(F)(F)F)ccc4C

>  <parent_molecule_chembl_id>  (308) 
CHEMBL1214141

>  <assay_type>  (308) 
B

>  <src_id>  (308) 
1

>  <ligand_efficiency>  (308) 
{u'le': u'0.23', u'bei': u'12.56', u'sei': u'6.65', u'lle': u'2.02'}

>  <standard_flag>  (308) 
True

>  <molecule_chembl_id>  (308) 
CHEMBL1214141

>  <target_organism>  (308) 
Homo sapiens

>  <standard_units>  (308) 
nM

>  <record_id>  (308) 
931508

>  <document_chembl_id>  (308) 
CHEMBL1212824

>  <bao_format>  (308) 
BAO_0000357

>  <data_validity_description>  (308) 
None

>  <activity_id>  (308) 
3399944

>  <standard_type>  (308) 
IC50

>  <target_chembl_id>  (308) 
CHEMBL1862

>  <data_validity_comment>  (308) 
None

>  <published_value>  (308) 
133

>  <document_year>  (308) 
2010

>  <target_pref_name>  (308) 
Tyrosine-protein kinase ABL

>  <assay_chembl_id>  (308) 
CHEMBL1217183

>  <standard_relation>  (308) 
=

>  <assay_description>  (308) 
Inhibition of c-Abl

>  <published_relation>  (308) 
=

>  <standard_value>  (308) 
133

>  <qudt_units>  (308) 
http://www.openphacts.org/units/Nanomolar

>  <target_tax_id>  (308) 
9606

>  <bao_label>  (308) 
single protein format

>  <published_units>  (308) 
nM

>  <pchembl_value>  (308) 
6.88

>  <published_type>  (308) 
IC50

>  <activity_comment>  (308) 
None

$$$$

     RDKit          

 39 43  0  0  0  0  0  0  0  0999 V2000
    0.0000    0.0000    0.0000 C   0  0  0  0  0  0  0  0  0  0  0  0
    0.0000    0.0000    0.0000 N   0  0  0  0  0  0  0  0  0  0  0  0
    0.0000    0.0000    0.0000 C   0  0  0  0  0  0  0  0  0  0  0  0
    0.0000    0.0000    0.0000 O   0  0  0  0  0  0  0  0  0  0  0  0
    0.0000    0.0000    0.0000 N   0  0  0  0  0  0  0  0  0  0  0  0
    0.0000    0.0000    0.0000 C   0  0  0  0  0  0  0  0  0  0  0  0
    0.0000    0.0000    0.0000 C   0  0  0  0  0  0  0  0  0  0  0  0
    0.0000    0.0000    0.0000 C   0  0  0  0  0  0  0  0  0  0  0  0
    0.0000    0.0000    0.0000 N   0  0  0  0  0  0  0  0  0  0  0  0
    0.0000    0.0000    0.0000 C   0  0  0  0  0  0  0  0  0  0  0  0
    0.0000    0.0000    0.0000 N   0  0  0  0  0  0  0  0  0  0  0  0
    0.0000    0.0000    0.0000 C   0  0  0  0  0  0  0  0  0  0  0  0
    0.0000    0.0000    0.0000 C   0  0  0  0  0  0  0  0  0  0  0  0
    0.0000    0.0000    0.0000 C   0  0  0  0  0  0  0  0  0  0  0  0
    0.0000    0.0000    0.0000 C   0  0  0  0  0  0  0  0  0  0  0  0
    0.0000    0.0000    0.0000 C   0  0  0  0  0  0  0  0  0  0  0  0
    0.0000    0.0000    0.0000 C   0  0  0  0  0  0  0  0  0  0  0  0
    0.0000    0.0000    0.0000 N   0  0  0  0  0  0  0  0  0  0  0  0
    0.0000    0.0000    0.0000 C   0  0  0  0  0  0  0  0  0  0  0  0
    0.0000    0.0000    0.0000 C   0  0  0  0  0  0  0  0  0  0  0  0
    0.0000    0.0000    0.0000 C   0  0  0  0  0  0  0  0  0  0  0  0
    0.0000    0.0000    0.0000 C   0  0  0  0  0  0  0  0  0  0  0  0
    0.0000    0.0000    0.0000 N   0  0  0  0  0  0  0  0  0  0  0  0
    0.0000    0.0000    0.0000 C   0  0  0  0  0  0  0  0  0  0  0  0
    0.0000    0.0000    0.0000 O   0  0  0  0  0  0  0  0  0  0  0  0
    0.0000    0.0000    0.0000 C   0  0  0  0  0  0  0  0  0  0  0  0
    0.0000    0.0000    0.0000 C   0  0  0  0  0  0  0  0  0  0  0  0
    0.0000    0.0000    0.0000 C   0  0  0  0  0  0  0  0  0  0  0  0
    0.0000    0.0000    0.0000 C   0  0  0  0  0  0  0  0  0  0  0  0
    0.0000    0.0000    0.0000 C   0  0  0  0  0  0  0  0  0  0  0  0
    0.0000    0.0000    0.0000 C   0  0  0  0  0  0  0  0  0  0  0  0
    0.0000    0.0000    0.0000 C   0  0  0  0  0  0  0  0  0  0  0  0
    0.0000    0.0000    0.0000 F   0  0  0  0  0  0  0  0  0  0  0  0
    0.0000    0.0000    0.0000 F   0  0  0  0  0  0  0  0  0  0  0  0
    0.0000    0.0000    0.0000 F   0  0  0  0  0  0  0  0  0  0  0  0
    0.0000    0.0000    0.0000 C   0  0  0  0  0  0  0  0  0  0  0  0
    0.0000    0.0000    0.0000 C   0  0  0  0  0  0  0  0  0  0  0  0
    0.0000    0.0000    0.0000 C   0  0  0  0  0  0  0  0  0  0  0  0
    0.0000    0.0000    0.0000 C   0  0  0  0  0  0  0  0  0  0  0  0
  1  2  1  0
  2  3  1  0
  3  4  2  0
  3  5  1  0
  5  6  1  0
  6  7  1  0
  7  8  2  0
  8  9  1  0
  9 10  2  0
 10 11  1  0
 11 12  1  0
 12 13  2  0
 13 14  1  0
 14 15  2  0
 15 16  1  0
 16 17  2  0
 10 18  1  0
 18 19  2  0
  5 20  1  0
 20 21  2  0
 21 22  1  0
 22 23  1  0
 23 24  1  0
 24 25  2  0
 24 26  1  0
 26 27  2  0
 27 28  1  0
 28 29  2  0
 29 30  1  0
 30 31  2  0
 30 32  1  0
 32 33  1  0
 32 34  1  0
 32 35  1  0
 22 36  2  0
 36 37  1  0
 37 38  2  0
 38 39  1  0
 19  2  1  0
 19  7  1  0
 17 12  1  0
 38 20  1  0
 31 26  1  0
M  END
>  <pIC50>  (309) 
6.87

>  <ChEMBL_ID>  (309) 
CHEMBL1214142

>  <document_journal>  (309) 
J. Med. Chem.

>  <bao_endpoint>  (309) 
BAO_0000190

>  <potential_duplicate>  (309) 
False

>  <uo_units>  (309) 
UO_0000065

>  <canonical_smiles>  (309) 
CN1C(=O)N(Cc2cnc(Nc3ccccc3)nc12)c4cc(NC(=O)c5cccc(c5)C(F)(F)F)ccc4C

>  <parent_molecule_chembl_id>  (309) 
CHEMBL1214142

>  <assay_type>  (309) 
B

>  <src_id>  (309) 
1

>  <ligand_efficiency>  (309) 
{u'le': u'0.24', u'bei': u'12.9', u'sei': u'7.59', u'lle': u'1.14'}

>  <standard_flag>  (309) 
True

>  <molecule_chembl_id>  (309) 
CHEMBL1214142

>  <target_organism>  (309) 
Homo sapiens

>  <standard_units>  (309) 
nM

>  <record_id>  (309) 
931510

>  <document_chembl_id>  (309) 
CHEMBL1212824

>  <bao_format>  (309) 
BAO_0000357

>  <data_validity_description>  (309) 
None

>  <activity_id>  (309) 
3399945

>  <standard_type>  (309) 
IC50

>  <target_chembl_id>  (309) 
CHEMBL1862

>  <data_validity_comment>  (309) 
None

>  <published_value>  (309) 
135

>  <document_year>  (309) 
2010

>  <target_pref_name>  (309) 
Tyrosine-protein kinase ABL

>  <assay_chembl_id>  (309) 
CHEMBL1217183

>  <standard_relation>  (309) 
=

>  <assay_description>  (309) 
Inhibition of c-Abl

>  <published_relation>  (309) 
=

>  <standard_value>  (309) 
135

>  <qudt_units>  (309) 
http://www.openphacts.org/units/Nanomolar

>  <target_tax_id>  (309) 
9606

>  <bao_label>  (309) 
single protein format

>  <published_units>  (309) 
nM

>  <pchembl_value>  (309) 
6.87

>  <published_type>  (309) 
IC50

>  <activity_comment>  (309) 
None

$$$$

     RDKit          

 35 38  0  0  0  0  0  0  0  0999 V2000
    0.0000    0.0000    0.0000 C   0  0  0  0  0  0  0  0  0  0  0  0
    0.0000    0.0000    0.0000 N   0  0  0  0  0  0  0  0  0  0  0  0
    0.0000    0.0000    0.0000 C   0  0  0  0  0  0  0  0  0  0  0  0
    0.0000    0.0000    0.0000 N   0  0  0  0  0  0  0  0  0  0  0  0
    0.0000    0.0000    0.0000 C   0  0  0  0  0  0  0  0  0  0  0  0
    0.0000    0.0000    0.0000 C   0  0  0  0  0  0  0  0  0  0  0  0
    0.0000    0.0000    0.0000 C   0  0  0  0  0  0  0  0  0  0  0  0
    0.0000    0.0000    0.0000 N   0  0  0  0  0  0  0  0  0  0  0  0
    0.0000    0.0000    0.0000 C   0  0  0  0  0  0  0  0  0  0  0  0
    0.0000    0.0000    0.0000 C   0  0  0  0  0  0  0  0  0  0  0  0
    0.0000    0.0000    0.0000 C   0  0  0  0  0  0  0  0  0  0  0  0
    0.0000    0.0000    0.0000 C   0  0  0  0  0  0  0  0  0  0  0  0
    0.0000    0.0000    0.0000 N   0  0  0  0  0  0  0  0  0  0  0  0
    0.0000    0.0000    0.0000 C   0  0  0  0  0  0  0  0  0  0  0  0
    0.0000    0.0000    0.0000 O   0  0  0  0  0  0  0  0  0  0  0  0
    0.0000    0.0000    0.0000 C   0  0  0  0  0  0  0  0  0  0  0  0
    0.0000    0.0000    0.0000 C   0  0  0  0  0  0  0  0  0  0  0  0
    0.0000    0.0000    0.0000 C   0  0  0  0  0  0  0  0  0  0  0  0
    0.0000    0.0000    0.0000 C   0  0  0  0  0  0  0  0  0  0  0  0
    0.0000    0.0000    0.0000 N   0  0  0  0  0  0  0  0  0  0  0  0
    0.0000    0.0000    0.0000 C   0  0  0  0  0  0  0  0  0  0  0  0
    0.0000    0.0000    0.0000 O   0  0  0  0  0  0  0  0  0  0  0  0
    0.0000    0.0000    0.0000 C   0  0  0  0  0  0  0  0  0  0  0  0
    0.0000    0.0000    0.0000 C   0  0  0  0  0  0  0  0  0  0  0  0
    0.0000    0.0000    0.0000 C   0  0  0  0  0  0  0  0  0  0  0  0
    0.0000    0.0000    0.0000 C   0  0  0  0  0  0  0  0  0  0  0  0
    0.0000    0.0000    0.0000 C   0  0  0  0  0  0  0  0  0  0  0  0
    0.0000    0.0000    0.0000 C   0  0  0  0  0  0  0  0  0  0  0  0
    0.0000    0.0000    0.0000 C   0  0  0  0  0  0  0  0  0  0  0  0
    0.0000    0.0000    0.0000 F   0  0  0  0  0  0  0  0  0  0  0  0
    0.0000    0.0000    0.0000 F   0  0  0  0  0  0  0  0  0  0  0  0
    0.0000    0.0000    0.0000 F   0  0  0  0  0  0  0  0  0  0  0  0
    0.0000    0.0000    0.0000 C   0  0  0  0  0  0  0  0  0  0  0  0
    0.0000    0.0000    0.0000 C   0  0  0  0  0  0  0  0  0  0  0  0
    0.0000    0.0000    0.0000 C   0  0  0  0  0  0  0  0  0  0  0  0
  1  2  1  0
  2  3  1  0
  3  4  2  0
  4  5  1  0
  5  6  2  0
  6  7  1  0
  7  8  2  0
  7  9  1  0
  9 10  2  0
 10 11  1  0
 11 12  2  0
 12 13  1  0
 13 14  2  0
 14 15  1  0
 15 16  1  0
 16 17  2  0
 17 18  1  0
 18 19  2  0
 19 20  1  0
 20 21  1  0
 21 22  2  0
 21 23  1  0
 23 24  2  0
 24 25  1  0
 25 26  2  0
 26 27  1  0
 27 28  2  0
 27 29  1  0
 29 30  1  0
 29 31  1  0
 29 32  1  0
 19 33  1  0
 33 34  2  0
 34 35  1  0
  8  3  1  0
 14  9  1  0
 34 16  1  0
 28 23  1  0
M  END
>  <pIC50>  (310) 
6.3

>  <ChEMBL_ID>  (310) 
CHEMBL1242977

>  <document_journal>  (310) 
J. Med. Chem.

>  <bao_endpoint>  (310) 
BAO_0000190

>  <potential_duplicate>  (310) 
False

>  <uo_units>  (310) 
UO_0000065

>  <canonical_smiles>  (310) 
CNc1nccc(n1)c2cccnc2Oc3ccc(NC(=O)c4cccc(c4)C(F)(F)F)cc3C

>  <parent_molecule_chembl_id>  (310) 
CHEMBL1242977

>  <assay_type>  (310) 
B

>  <src_id>  (310) 
1

>  <ligand_efficiency>  (310) 
{u'le': u'0.25', u'bei': u'13.14', u'sei': u'7.07', u'lle': u'0.81'}

>  <standard_flag>  (310) 
True

>  <molecule_chembl_id>  (310) 
CHEMBL1242977

>  <target_organism>  (310) 
Homo sapiens

>  <standard_units>  (310) 
nM

>  <record_id>  (310) 
954412

>  <document_chembl_id>  (310) 
CHEMBL1240487

>  <bao_format>  (310) 
BAO_0000357

>  <data_validity_description>  (310) 
None

>  <activity_id>  (310) 
3439110

>  <standard_type>  (310) 
IC50

>  <target_chembl_id>  (310) 
CHEMBL1862

>  <data_validity_comment>  (310) 
None

>  <published_value>  (310) 
503

>  <document_year>  (310) 
2010

>  <target_pref_name>  (310) 
Tyrosine-protein kinase ABL

>  <assay_chembl_id>  (310) 
CHEMBL1247957

>  <standard_relation>  (310) 
=

>  <assay_description>  (310) 
Inhibition of Abl by HTRF assay

>  <published_relation>  (310) 
=

>  <standard_value>  (310) 
503

>  <qudt_units>  (310) 
http://www.openphacts.org/units/Nanomolar

>  <target_tax_id>  (310) 
9606

>  <bao_label>  (310) 
single protein format

>  <published_units>  (310) 
nM

>  <pchembl_value>  (310) 
6.3

>  <published_type>  (310) 
IC50

>  <activity_comment>  (310) 
None

$$$$

     RDKit          

 21 23  0  0  0  0  0  0  0  0999 V2000
    0.0000    0.0000    0.0000 C   0  0  0  0  0  0  0  0  0  0  0  0
    0.0000    0.0000    0.0000 C   0  0  0  0  0  0  0  0  0  0  0  0
    0.0000    0.0000    0.0000 C   0  0  0  0  0  0  0  0  0  0  0  0
    0.0000    0.0000    0.0000 N   0  0  0  0  0  0  0  0  0  0  0  0
    0.0000    0.0000    0.0000 N   0  0  0  0  0  0  0  0  0  0  0  0
    0.0000    0.0000    0.0000 C   0  0  0  0  0  0  0  0  0  0  0  0
    0.0000    0.0000    0.0000 C   0  0  0  0  0  0  0  0  0  0  0  0
    0.0000    0.0000    0.0000 C   0  0  0  0  0  0  0  0  0  0  0  0
    0.0000    0.0000    0.0000 C   0  0  0  0  0  0  0  0  0  0  0  0
    0.0000    0.0000    0.0000 O   0  0  0  0  0  0  0  0  0  0  0  0
    0.0000    0.0000    0.0000 C   0  0  0  0  0  0  0  0  0  0  0  0
    0.0000    0.0000    0.0000 C   0  0  0  0  0  0  0  0  0  0  0  0
    0.0000    0.0000    0.0000 Br  0  0  0  0  0  0  0  0  0  0  0  0
    0.0000    0.0000    0.0000 C   0  0  0  0  0  0  0  0  0  0  0  0
    0.0000    0.0000    0.0000 C   0  0  0  0  0  0  0  0  0  0  0  0
    0.0000    0.0000    0.0000 C   0  0  0  0  0  0  0  0  0  0  0  0
    0.0000    0.0000    0.0000 N   0  0  0  0  0  0  0  0  0  0  0  0
    0.0000    0.0000    0.0000 N   0  0  0  0  0  0  0  0  0  0  0  0
    0.0000    0.0000    0.0000 C   0  0  0  0  0  0  0  0  0  0  0  0
    0.0000    0.0000    0.0000 N   0  0  0  0  0  0  0  0  0  0  0  0
    0.0000    0.0000    0.0000 C   0  0  0  0  0  0  0  0  0  0  0  0
  1  2  1  0
  2  3  1  0
  2  4  1  0
  4  5  1  0
  5  6  2  0
  6  7  1  0
  7  8  2  0
  8  9  1  0
  9 10  1  0
  9 11  2  0
 11 12  1  0
 12 13  1  0
 12 14  2  0
  6 15  1  0
 15 16  2  0
 16 17  1  0
 16 18  1  0
 18 19  2  0
 19 20  1  0
 20 21  2  0
 21  4  1  0
 14  7  1  0
 21 15  1  0
M  END
>  <pIC50>  (311) 
7.59

>  <ChEMBL_ID>  (311) 
CHEMBL1242285

>  <document_journal>  (311) 
Nat. Chem. Biol.

>  <bao_endpoint>  (311) 
BAO_0000190

>  <potential_duplicate>  (311) 
False

>  <uo_units>  (311) 
UO_0000065

>  <canonical_smiles>  (311) 
CC(C)n1nc(c2cc(O)cc(Br)c2)c3c(N)ncnc13

>  <parent_molecule_chembl_id>  (311) 
CHEMBL1242285

>  <assay_type>  (311) 
B

>  <src_id>  (311) 
1

>  <ligand_efficiency>  (311) 
{u'le': u'0.49', u'bei': u'21.78', u'sei': u'8.44', u'lle': u'4.52'}

>  <standard_flag>  (311) 
True

>  <molecule_chembl_id>  (311) 
CHEMBL1242285

>  <target_organism>  (311) 
Homo sapiens

>  <standard_units>  (311) 
nM

>  <record_id>  (311) 
953444

>  <document_chembl_id>  (311) 
CHEMBL1240340

>  <bao_format>  (311) 
BAO_0000357

>  <data_validity_description>  (311) 
None

>  <activity_id>  (311) 
3440721

>  <standard_type>  (311) 
IC50

>  <target_chembl_id>  (311) 
CHEMBL1862

>  <data_validity_comment>  (311) 
None

>  <published_value>  (311) 
0.026

>  <document_year>  (311) 
2008

>  <target_pref_name>  (311) 
Tyrosine-protein kinase ABL

>  <assay_chembl_id>  (311) 
CHEMBL1243972

>  <standard_relation>  (311) 
=

>  <assay_description>  (311) 
Inhibition of recombinant c-Abl by radioactive phosphotransfer assay in presence of 10 uM ATP

>  <published_relation>  (311) 
=

>  <standard_value>  (311) 
26

>  <qudt_units>  (311) 
http://www.openphacts.org/units/Nanomolar

>  <target_tax_id>  (311) 
9606

>  <bao_label>  (311) 
single protein format

>  <published_units>  (311) 
uM

>  <pchembl_value>  (311) 
7.59

>  <published_type>  (311) 
IC50

>  <activity_comment>  (311) 
None

$$$$

     RDKit          

 24 26  0  0  0  0  0  0  0  0999 V2000
    0.0000    0.0000    0.0000 C   0  0  0  0  0  0  0  0  0  0  0  0
    0.0000    0.0000    0.0000 O   0  0  0  0  0  0  0  0  0  0  0  0
    0.0000    0.0000    0.0000 C   0  0  0  0  0  0  0  0  0  0  0  0
    0.0000    0.0000    0.0000 O   0  0  0  0  0  0  0  0  0  0  0  0
    0.0000    0.0000    0.0000 C   0  0  0  0  0  0  0  0  0  0  0  0
    0.0000    0.0000    0.0000 C   0  0  0  0  0  0  0  0  0  0  0  0
    0.0000    0.0000    0.0000 C   0  0  0  0  0  0  0  0  0  0  0  0
    0.0000    0.0000    0.0000 C   0  0  0  0  0  0  0  0  0  0  0  0
    0.0000    0.0000    0.0000 C   0  0  0  0  0  0  0  0  0  0  0  0
    0.0000    0.0000    0.0000 C   0  0  0  0  0  0  0  0  0  0  0  0
    0.0000    0.0000    0.0000 Br  0  0  0  0  0  0  0  0  0  0  0  0
    0.0000    0.0000    0.0000 C   0  0  0  0  0  0  0  0  0  0  0  0
    0.0000    0.0000    0.0000 N   0  0  0  0  0  0  0  0  0  0  0  0
    0.0000    0.0000    0.0000 N   0  0  0  0  0  0  0  0  0  0  0  0
    0.0000    0.0000    0.0000 C   0  0  0  0  0  0  0  0  0  0  0  0
    0.0000    0.0000    0.0000 C   0  0  0  0  0  0  0  0  0  0  0  0
    0.0000    0.0000    0.0000 C   0  0  0  0  0  0  0  0  0  0  0  0
    0.0000    0.0000    0.0000 C   0  0  0  0  0  0  0  0  0  0  0  0
    0.0000    0.0000    0.0000 N   0  0  0  0  0  0  0  0  0  0  0  0
    0.0000    0.0000    0.0000 C   0  0  0  0  0  0  0  0  0  0  0  0
    0.0000    0.0000    0.0000 N   0  0  0  0  0  0  0  0  0  0  0  0
    0.0000    0.0000    0.0000 C   0  0  0  0  0  0  0  0  0  0  0  0
    0.0000    0.0000    0.0000 N   0  0  0  0  0  0  0  0  0  0  0  0
    0.0000    0.0000    0.0000 C   0  0  0  0  0  0  0  0  0  0  0  0
  1  2  1  0
  2  3  1  0
  3  4  1  0
  4  5  1  0
  5  6  2  0
  6  7  1  0
  7  8  2  0
  8  9  1  0
  9 10  2  0
 10 11  1  0
  7 12  1  0
 12 13  2  0
 13 14  1  0
 14 15  1  0
 15 16  1  0
 15 17  1  0
 14 18  1  0
 18 19  2  0
 19 20  1  0
 20 21  2  0
 21 22  1  0
 22 23  1  0
 22 24  2  0
 10  5  1  0
 24 12  1  0
 24 18  1  0
M  END
>  <pIC50>  (312) 
6.5

>  <ChEMBL_ID>  (312) 
CHEMBL1242286

>  <document_journal>  (312) 
Nat. Chem. Biol.

>  <bao_endpoint>  (312) 
BAO_0000190

>  <potential_duplicate>  (312) 
False

>  <uo_units>  (312) 
UO_0000065

>  <canonical_smiles>  (312) 
COCOc1cc(ccc1Br)c2nn(C(C)C)c3ncnc(N)c23

>  <parent_molecule_chembl_id>  (312) 
CHEMBL1242286

>  <assay_type>  (312) 
B

>  <src_id>  (312) 
1

>  <ligand_efficiency>  (312) 
{u'le': u'0.37', u'bei': u'16.56', u'sei': u'7.38', u'lle': u'3.35'}

>  <standard_flag>  (312) 
True

>  <molecule_chembl_id>  (312) 
CHEMBL1242286

>  <target_organism>  (312) 
Homo sapiens

>  <standard_units>  (312) 
nM

>  <record_id>  (312) 
953445

>  <document_chembl_id>  (312) 
CHEMBL1240340

>  <bao_format>  (312) 
BAO_0000357

>  <data_validity_description>  (312) 
None

>  <activity_id>  (312) 
3440735

>  <standard_type>  (312) 
IC50

>  <target_chembl_id>  (312) 
CHEMBL1862

>  <data_validity_comment>  (312) 
None

>  <published_value>  (312) 
0.319

>  <document_year>  (312) 
2008

>  <target_pref_name>  (312) 
Tyrosine-protein kinase ABL

>  <assay_chembl_id>  (312) 
CHEMBL1243972

>  <standard_relation>  (312) 
=

>  <assay_description>  (312) 
Inhibition of recombinant c-Abl by radioactive phosphotransfer assay in presence of 10 uM ATP

>  <published_relation>  (312) 
=

>  <standard_value>  (312) 
319

>  <qudt_units>  (312) 
http://www.openphacts.org/units/Nanomolar

>  <target_tax_id>  (312) 
9606

>  <bao_label>  (312) 
single protein format

>  <published_units>  (312) 
uM

>  <pchembl_value>  (312) 
6.5

>  <published_type>  (312) 
IC50

>  <activity_comment>  (312) 
None

$$$$

     RDKit          

 19 21  0  0  0  0  0  0  0  0999 V2000
    0.0000    0.0000    0.0000 C   0  0  0  0  0  0  0  0  0  0  0  0
    0.0000    0.0000    0.0000 N   0  0  0  0  0  0  0  0  0  0  0  0
    0.0000    0.0000    0.0000 N   0  0  0  0  0  0  0  0  0  0  0  0
    0.0000    0.0000    0.0000 C   0  0  0  0  0  0  0  0  0  0  0  0
    0.0000    0.0000    0.0000 C   0  0  0  0  0  0  0  0  0  0  0  0
    0.0000    0.0000    0.0000 C   0  0  0  0  0  0  0  0  0  0  0  0
    0.0000    0.0000    0.0000 C   0  0  0  0  0  0  0  0  0  0  0  0
    0.0000    0.0000    0.0000 C   0  0  0  0  0  0  0  0  0  0  0  0
    0.0000    0.0000    0.0000 Br  0  0  0  0  0  0  0  0  0  0  0  0
    0.0000    0.0000    0.0000 C   0  0  0  0  0  0  0  0  0  0  0  0
    0.0000    0.0000    0.0000 O   0  0  0  0  0  0  0  0  0  0  0  0
    0.0000    0.0000    0.0000 C   0  0  0  0  0  0  0  0  0  0  0  0
    0.0000    0.0000    0.0000 C   0  0  0  0  0  0  0  0  0  0  0  0
    0.0000    0.0000    0.0000 C   0  0  0  0  0  0  0  0  0  0  0  0
    0.0000    0.0000    0.0000 N   0  0  0  0  0  0  0  0  0  0  0  0
    0.0000    0.0000    0.0000 N   0  0  0  0  0  0  0  0  0  0  0  0
    0.0000    0.0000    0.0000 C   0  0  0  0  0  0  0  0  0  0  0  0
    0.0000    0.0000    0.0000 N   0  0  0  0  0  0  0  0  0  0  0  0
    0.0000    0.0000    0.0000 C   0  0  0  0  0  0  0  0  0  0  0  0
  1  2  1  0
  2  3  1  0
  3  4  2  0
  4  5  1  0
  5  6  2  0
  6  7  1  0
  7  8  2  0
  8  9  1  0
  8 10  1  0
 10 11  1  0
 10 12  2  0
  4 13  1  0
 13 14  2  0
 14 15  1  0
 14 16  1  0
 16 17  2  0
 17 18  1  0
 18 19  2  0
 19  2  1  0
 12  5  1  0
 19 13  1  0
M  END
>  <pIC50>  (313) 
6.96

>  <ChEMBL_ID>  (313) 
CHEMBL1241299

>  <document_journal>  (313) 
Nat. Chem. Biol.

>  <bao_endpoint>  (313) 
BAO_0000190

>  <potential_duplicate>  (313) 
False

>  <uo_units>  (313) 
UO_0000065

>  <canonical_smiles>  (313) 
Cn1nc(c2ccc(Br)c(O)c2)c3c(N)ncnc13

>  <parent_molecule_chembl_id>  (313) 
CHEMBL1241299

>  <assay_type>  (313) 
B

>  <src_id>  (313) 
1

>  <ligand_efficiency>  (313) 
{u'le': u'0.5', u'bei': u'21.75', u'sei': u'7.75', u'lle': u'4.61'}

>  <standard_flag>  (313) 
True

>  <molecule_chembl_id>  (313) 
CHEMBL1241299

>  <target_organism>  (313) 
Homo sapiens

>  <standard_units>  (313) 
nM

>  <record_id>  (313) 
951991

>  <document_chembl_id>  (313) 
CHEMBL1240340

>  <bao_format>  (313) 
BAO_0000357

>  <data_validity_description>  (313) 
None

>  <activity_id>  (313) 
3440749

>  <standard_type>  (313) 
IC50

>  <target_chembl_id>  (313) 
CHEMBL1862

>  <data_validity_comment>  (313) 
None

>  <published_value>  (313) 
0.109

>  <document_year>  (313) 
2008

>  <target_pref_name>  (313) 
Tyrosine-protein kinase ABL

>  <assay_chembl_id>  (313) 
CHEMBL1243972

>  <standard_relation>  (313) 
=

>  <assay_description>  (313) 
Inhibition of recombinant c-Abl by radioactive phosphotransfer assay in presence of 10 uM ATP

>  <published_relation>  (313) 
=

>  <standard_value>  (313) 
109

>  <qudt_units>  (313) 
http://www.openphacts.org/units/Nanomolar

>  <target_tax_id>  (313) 
9606

>  <bao_label>  (313) 
single protein format

>  <published_units>  (313) 
uM

>  <pchembl_value>  (313) 
6.96

>  <published_type>  (313) 
IC50

>  <activity_comment>  (313) 
None

$$$$

     RDKit          

 22 25  0  0  0  0  0  0  0  0999 V2000
    0.0000    0.0000    0.0000 N   0  0  0  0  0  0  0  0  0  0  0  0
    0.0000    0.0000    0.0000 C   0  0  0  0  0  0  0  0  0  0  0  0
    0.0000    0.0000    0.0000 N   0  0  0  0  0  0  0  0  0  0  0  0
    0.0000    0.0000    0.0000 C   0  0  0  0  0  0  0  0  0  0  0  0
    0.0000    0.0000    0.0000 N   0  0  0  0  0  0  0  0  0  0  0  0
    0.0000    0.0000    0.0000 C   0  0  0  0  0  0  0  0  0  0  0  0
    0.0000    0.0000    0.0000 C   0  0  0  0  0  0  0  0  0  0  0  0
    0.0000    0.0000    0.0000 C   0  0  0  0  0  0  0  0  0  0  0  0
    0.0000    0.0000    0.0000 N   0  0  0  0  0  0  0  0  0  0  0  0
    0.0000    0.0000    0.0000 N   0  0  0  0  0  0  0  0  0  0  0  0
    0.0000    0.0000    0.0000 C   0  0  0  0  0  0  0  0  0  0  0  0
    0.0000    0.0000    0.0000 C   0  0  0  0  0  0  0  0  0  0  0  0
    0.0000    0.0000    0.0000 C   0  0  0  0  0  0  0  0  0  0  0  0
    0.0000    0.0000    0.0000 C   0  0  0  0  0  0  0  0  0  0  0  0
    0.0000    0.0000    0.0000 C   0  0  0  0  0  0  0  0  0  0  0  0
    0.0000    0.0000    0.0000 C   0  0  0  0  0  0  0  0  0  0  0  0
    0.0000    0.0000    0.0000 C   0  0  0  0  0  0  0  0  0  0  0  0
    0.0000    0.0000    0.0000 C   0  0  0  0  0  0  0  0  0  0  0  0
    0.0000    0.0000    0.0000 Br  0  0  0  0  0  0  0  0  0  0  0  0
    0.0000    0.0000    0.0000 C   0  0  0  0  0  0  0  0  0  0  0  0
    0.0000    0.0000    0.0000 O   0  0  0  0  0  0  0  0  0  0  0  0
    0.0000    0.0000    0.0000 C   0  0  0  0  0  0  0  0  0  0  0  0
  1  2  1  0
  2  3  2  0
  3  4  1  0
  4  5  2  0
  5  6  1  0
  6  7  2  0
  7  8  1  0
  8  9  2  0
  9 10  1  0
 10 11  1  0
 11 12  1  0
 12 13  1  0
 13 14  1  0
  8 15  1  0
 15 16  2  0
 16 17  1  0
 17 18  2  0
 18 19  1  0
 18 20  1  0
 20 21  1  0
 20 22  2  0
  7  2  1  0
 10  6  1  0
 14 11  1  0
 22 15  1  0
M  END
>  <pIC50>  (314) 
7.64

>  <ChEMBL_ID>  (314) 
CHEMBL1242287

>  <document_journal>  (314) 
Nat. Chem. Biol.

>  <bao_endpoint>  (314) 
BAO_0000190

>  <potential_duplicate>  (314) 
False

>  <uo_units>  (314) 
UO_0000065

>  <canonical_smiles>  (314) 
Nc1ncnc2c1c(nn2C3CCC3)c4ccc(Br)c(O)c4

>  <parent_molecule_chembl_id>  (314) 
CHEMBL1242287

>  <assay_type>  (314) 
B

>  <src_id>  (314) 
1

>  <ligand_efficiency>  (314) 
{u'le': u'0.47', u'bei': u'21.21', u'sei': u'8.5', u'lle': u'4.35'}

>  <standard_flag>  (314) 
True

>  <molecule_chembl_id>  (314) 
CHEMBL1242287

>  <target_organism>  (314) 
Homo sapiens

>  <standard_units>  (314) 
nM

>  <record_id>  (314) 
953446

>  <document_chembl_id>  (314) 
CHEMBL1240340

>  <bao_format>  (314) 
BAO_0000357

>  <data_validity_description>  (314) 
None

>  <activity_id>  (314) 
3440763

>  <standard_type>  (314) 
IC50

>  <target_chembl_id>  (314) 
CHEMBL1862

>  <data_validity_comment>  (314) 
None

>  <published_value>  (314) 
0.023

>  <document_year>  (314) 
2008

>  <target_pref_name>  (314) 
Tyrosine-protein kinase ABL

>  <assay_chembl_id>  (314) 
CHEMBL1243972

>  <standard_relation>  (314) 
=

>  <assay_description>  (314) 
Inhibition of recombinant c-Abl by radioactive phosphotransfer assay in presence of 10 uM ATP

>  <published_relation>  (314) 
=

>  <standard_value>  (314) 
23

>  <qudt_units>  (314) 
http://www.openphacts.org/units/Nanomolar

>  <target_tax_id>  (314) 
9606

>  <bao_label>  (314) 
single protein format

>  <published_units>  (314) 
uM

>  <pchembl_value>  (314) 
7.64

>  <published_type>  (314) 
IC50

>  <activity_comment>  (314) 
None

$$$$

     RDKit          

 23 26  0  0  0  0  0  0  0  0999 V2000
    0.0000    0.0000    0.0000 N   0  0  0  0  0  0  0  0  0  0  0  0
    0.0000    0.0000    0.0000 C   0  0  0  0  0  0  0  0  0  0  0  0
    0.0000    0.0000    0.0000 N   0  0  0  0  0  0  0  0  0  0  0  0
    0.0000    0.0000    0.0000 C   0  0  0  0  0  0  0  0  0  0  0  0
    0.0000    0.0000    0.0000 N   0  0  0  0  0  0  0  0  0  0  0  0
    0.0000    0.0000    0.0000 C   0  0  0  0  0  0  0  0  0  0  0  0
    0.0000    0.0000    0.0000 C   0  0  0  0  0  0  0  0  0  0  0  0
    0.0000    0.0000    0.0000 C   0  0  0  0  0  0  0  0  0  0  0  0
    0.0000    0.0000    0.0000 N   0  0  0  0  0  0  0  0  0  0  0  0
    0.0000    0.0000    0.0000 N   0  0  0  0  0  0  0  0  0  0  0  0
    0.0000    0.0000    0.0000 C   0  0  0  0  0  0  0  0  0  0  0  0
    0.0000    0.0000    0.0000 C   0  0  0  0  0  0  0  0  0  0  0  0
    0.0000    0.0000    0.0000 C   0  0  0  0  0  0  0  0  0  0  0  0
    0.0000    0.0000    0.0000 C   0  0  0  0  0  0  0  0  0  0  0  0
    0.0000    0.0000    0.0000 C   0  0  0  0  0  0  0  0  0  0  0  0
    0.0000    0.0000    0.0000 C   0  0  0  0  0  0  0  0  0  0  0  0
    0.0000    0.0000    0.0000 C   0  0  0  0  0  0  0  0  0  0  0  0
    0.0000    0.0000    0.0000 C   0  0  0  0  0  0  0  0  0  0  0  0
    0.0000    0.0000    0.0000 C   0  0  0  0  0  0  0  0  0  0  0  0
    0.0000    0.0000    0.0000 Br  0  0  0  0  0  0  0  0  0  0  0  0
    0.0000    0.0000    0.0000 C   0  0  0  0  0  0  0  0  0  0  0  0
    0.0000    0.0000    0.0000 O   0  0  0  0  0  0  0  0  0  0  0  0
    0.0000    0.0000    0.0000 C   0  0  0  0  0  0  0  0  0  0  0  0
  1  2  1  0
  2  3  2  0
  3  4  1  0
  4  5  2  0
  5  6  1  0
  6  7  2  0
  7  8  1  0
  8  9  2  0
  9 10  1  0
 10 11  1  0
 11 12  1  0
 12 13  1  0
 13 14  1  0
 14 15  1  0
  8 16  1  0
 16 17  2  0
 17 18  1  0
 18 19  2  0
 19 20  1  0
 19 21  1  0
 21 22  1  0
 21 23  2  0
  7  2  1  0
 10  6  1  0
 15 11  1  0
 23 16  1  0
M  END
>  <pIC50>  (315) 
7.35

>  <ChEMBL_ID>  (315) 
CHEMBL1242376

>  <document_journal>  (315) 
Nat. Chem. Biol.

>  <bao_endpoint>  (315) 
BAO_0000190

>  <potential_duplicate>  (315) 
False

>  <uo_units>  (315) 
UO_0000065

>  <canonical_smiles>  (315) 
Nc1ncnc2c1c(nn2C3CCCC3)c4ccc(Br)c(O)c4

>  <parent_molecule_chembl_id>  (315) 
CHEMBL1242376

>  <assay_type>  (315) 
B

>  <src_id>  (315) 
1

>  <ligand_efficiency>  (315) 
{u'le': u'0.44', u'bei': u'19.63', u'sei': u'8.18', u'lle': u'3.6'}

>  <standard_flag>  (315) 
True

>  <molecule_chembl_id>  (315) 
CHEMBL1242376

>  <target_organism>  (315) 
Homo sapiens

>  <standard_units>  (315) 
nM

>  <record_id>  (315) 
953574

>  <document_chembl_id>  (315) 
CHEMBL1240340

>  <bao_format>  (315) 
BAO_0000357

>  <data_validity_description>  (315) 
None

>  <activity_id>  (315) 
3440777

>  <standard_type>  (315) 
IC50

>  <target_chembl_id>  (315) 
CHEMBL1862

>  <data_validity_comment>  (315) 
None

>  <published_value>  (315) 
0.045

>  <document_year>  (315) 
2008

>  <target_pref_name>  (315) 
Tyrosine-protein kinase ABL

>  <assay_chembl_id>  (315) 
CHEMBL1243972

>  <standard_relation>  (315) 
=

>  <assay_description>  (315) 
Inhibition of recombinant c-Abl by radioactive phosphotransfer assay in presence of 10 uM ATP

>  <published_relation>  (315) 
=

>  <standard_value>  (315) 
45

>  <qudt_units>  (315) 
http://www.openphacts.org/units/Nanomolar

>  <target_tax_id>  (315) 
9606

>  <bao_label>  (315) 
single protein format

>  <published_units>  (315) 
uM

>  <pchembl_value>  (315) 
7.35

>  <published_type>  (315) 
IC50

>  <activity_comment>  (315) 
None

$$$$

     RDKit          

 21 23  0  0  0  0  0  0  0  0999 V2000
    0.0000    0.0000    0.0000 C   0  0  0  0  0  0  0  0  0  0  0  0
    0.0000    0.0000    0.0000 C   0  0  0  0  0  0  0  0  0  0  0  0
    0.0000    0.0000    0.0000 C   0  0  0  0  0  0  0  0  0  0  0  0
    0.0000    0.0000    0.0000 N   0  0  0  0  0  0  0  0  0  0  0  0
    0.0000    0.0000    0.0000 N   0  0  0  0  0  0  0  0  0  0  0  0
    0.0000    0.0000    0.0000 C   0  0  0  0  0  0  0  0  0  0  0  0
    0.0000    0.0000    0.0000 C   0  0  0  0  0  0  0  0  0  0  0  0
    0.0000    0.0000    0.0000 C   0  0  0  0  0  0  0  0  0  0  0  0
    0.0000    0.0000    0.0000 C   0  0  0  0  0  0  0  0  0  0  0  0
    0.0000    0.0000    0.0000 C   0  0  0  0  0  0  0  0  0  0  0  0
    0.0000    0.0000    0.0000 F   0  0  0  0  0  0  0  0  0  0  0  0
    0.0000    0.0000    0.0000 C   0  0  0  0  0  0  0  0  0  0  0  0
    0.0000    0.0000    0.0000 O   0  0  0  0  0  0  0  0  0  0  0  0
    0.0000    0.0000    0.0000 C   0  0  0  0  0  0  0  0  0  0  0  0
    0.0000    0.0000    0.0000 C   0  0  0  0  0  0  0  0  0  0  0  0
    0.0000    0.0000    0.0000 C   0  0  0  0  0  0  0  0  0  0  0  0
    0.0000    0.0000    0.0000 N   0  0  0  0  0  0  0  0  0  0  0  0
    0.0000    0.0000    0.0000 N   0  0  0  0  0  0  0  0  0  0  0  0
    0.0000    0.0000    0.0000 C   0  0  0  0  0  0  0  0  0  0  0  0
    0.0000    0.0000    0.0000 N   0  0  0  0  0  0  0  0  0  0  0  0
    0.0000    0.0000    0.0000 C   0  0  0  0  0  0  0  0  0  0  0  0
  1  2  1  0
  2  3  1  0
  2  4  1  0
  4  5  1  0
  5  6  2  0
  6  7  1  0
  7  8  2  0
  8  9  1  0
  9 10  2  0
 10 11  1  0
 10 12  1  0
 12 13  1  0
 12 14  2  0
  6 15  1  0
 15 16  2  0
 16 17  1  0
 16 18  1  0
 18 19  2  0
 19 20  1  0
 20 21  2  0
 21  4  1  0
 14  7  1  0
 21 15  1  0
M  END
>  <pIC50>  (316) 
7.85

>  <ChEMBL_ID>  (316) 
CHEMBL1242377

>  <document_journal>  (316) 
Nat. Chem. Biol.

>  <bao_endpoint>  (316) 
BAO_0000190

>  <potential_duplicate>  (316) 
False

>  <uo_units>  (316) 
UO_0000065

>  <canonical_smiles>  (316) 
CC(C)n1nc(c2ccc(F)c(O)c2)c3c(N)ncnc13

>  <parent_molecule_chembl_id>  (316) 
CHEMBL1242377

>  <assay_type>  (316) 
B

>  <src_id>  (316) 
1

>  <ligand_efficiency>  (316) 
{u'le': u'0.51', u'bei': u'27.34', u'sei': u'8.74', u'lle': u'5.32'}

>  <standard_flag>  (316) 
True

>  <molecule_chembl_id>  (316) 
CHEMBL1242377

>  <target_organism>  (316) 
Homo sapiens

>  <standard_units>  (316) 
nM

>  <record_id>  (316) 
953575

>  <document_chembl_id>  (316) 
CHEMBL1240340

>  <bao_format>  (316) 
BAO_0000357

>  <data_validity_description>  (316) 
None

>  <activity_id>  (316) 
3440791

>  <standard_type>  (316) 
IC50

>  <target_chembl_id>  (316) 
CHEMBL1862

>  <data_validity_comment>  (316) 
None

>  <published_value>  (316) 
0.014

>  <document_year>  (316) 
2008

>  <target_pref_name>  (316) 
Tyrosine-protein kinase ABL

>  <assay_chembl_id>  (316) 
CHEMBL1243972

>  <standard_relation>  (316) 
=

>  <assay_description>  (316) 
Inhibition of recombinant c-Abl by radioactive phosphotransfer assay in presence of 10 uM ATP

>  <published_relation>  (316) 
=

>  <standard_value>  (316) 
14

>  <qudt_units>  (316) 
http://www.openphacts.org/units/Nanomolar

>  <target_tax_id>  (316) 
9606

>  <bao_label>  (316) 
single protein format

>  <published_units>  (316) 
uM

>  <pchembl_value>  (316) 
7.85

>  <published_type>  (316) 
IC50

>  <activity_comment>  (316) 
None

$$$$

     RDKit          

 22 24  0  0  0  0  0  0  0  0999 V2000
    0.0000    0.0000    0.0000 C   0  0  0  0  0  0  0  0  0  0  0  0
    0.0000    0.0000    0.0000 C   0  0  0  0  0  0  0  0  0  0  0  0
    0.0000    0.0000    0.0000 C   0  0  0  0  0  0  0  0  0  0  0  0
    0.0000    0.0000    0.0000 N   0  0  0  0  0  0  0  0  0  0  0  0
    0.0000    0.0000    0.0000 N   0  0  0  0  0  0  0  0  0  0  0  0
    0.0000    0.0000    0.0000 N   0  0  0  0  0  0  0  0  0  0  0  0
    0.0000    0.0000    0.0000 C   0  0  0  0  0  0  0  0  0  0  0  0
    0.0000    0.0000    0.0000 C   0  0  0  0  0  0  0  0  0  0  0  0
    0.0000    0.0000    0.0000 C   0  0  0  0  0  0  0  0  0  0  0  0
    0.0000    0.0000    0.0000 C   0  0  0  0  0  0  0  0  0  0  0  0
    0.0000    0.0000    0.0000 C   0  0  0  0  0  0  0  0  0  0  0  0
    0.0000    0.0000    0.0000 F   0  0  0  0  0  0  0  0  0  0  0  0
    0.0000    0.0000    0.0000 C   0  0  0  0  0  0  0  0  0  0  0  0
    0.0000    0.0000    0.0000 O   0  0  0  0  0  0  0  0  0  0  0  0
    0.0000    0.0000    0.0000 C   0  0  0  0  0  0  0  0  0  0  0  0
    0.0000    0.0000    0.0000 C   0  0  0  0  0  0  0  0  0  0  0  0
    0.0000    0.0000    0.0000 C   0  0  0  0  0  0  0  0  0  0  0  0
    0.0000    0.0000    0.0000 N   0  0  0  0  0  0  0  0  0  0  0  0
    0.0000    0.0000    0.0000 N   0  0  0  0  0  0  0  0  0  0  0  0
    0.0000    0.0000    0.0000 C   0  0  0  0  0  0  0  0  0  0  0  0
    0.0000    0.0000    0.0000 N   0  0  0  0  0  0  0  0  0  0  0  0
    0.0000    0.0000    0.0000 C   0  0  0  0  0  0  0  0  0  0  0  0
  1  2  1  0
  2  3  1  0
  3  4  1  0
  2  5  1  0
  5  6  1  0
  6  7  2  0
  7  8  1  0
  8  9  2  0
  9 10  1  0
 10 11  2  0
 11 12  1  0
 11 13  1  0
 13 14  1  0
 13 15  2  0
  7 16  1  0
 16 17  2  0
 17 18  1  0
 17 19  1  0
 19 20  2  0
 20 21  1  0
 21 22  2  0
 22  5  1  0
 15  8  1  0
 22 16  1  0
M  END
>  <pIC50>  (317) 
6.7

>  <ChEMBL_ID>  (317) 
CHEMBL1242378

>  <document_journal>  (317) 
Nat. Chem. Biol.

>  <bao_endpoint>  (317) 
BAO_0000190

>  <potential_duplicate>  (317) 
False

>  <uo_units>  (317) 
UO_0000065

>  <canonical_smiles>  (317) 
C[C@H](CN)n1nc(c2ccc(F)c(O)c2)c3c(N)ncnc13

>  <parent_molecule_chembl_id>  (317) 
CHEMBL1242378

>  <assay_type>  (317) 
B

>  <src_id>  (317) 
1

>  <ligand_efficiency>  (317) 
{u'le': u'0.42', u'bei': u'22.17', u'sei': u'5.78', u'lle': u'5.35'}

>  <standard_flag>  (317) 
True

>  <molecule_chembl_id>  (317) 
CHEMBL1242378

>  <target_organism>  (317) 
Homo sapiens

>  <standard_units>  (317) 
nM

>  <record_id>  (317) 
953576

>  <document_chembl_id>  (317) 
CHEMBL1240340

>  <bao_format>  (317) 
BAO_0000357

>  <data_validity_description>  (317) 
None

>  <activity_id>  (317) 
3440805

>  <standard_type>  (317) 
IC50

>  <target_chembl_id>  (317) 
CHEMBL1862

>  <data_validity_comment>  (317) 
None

>  <published_value>  (317) 
0.199

>  <document_year>  (317) 
2008

>  <target_pref_name>  (317) 
Tyrosine-protein kinase ABL

>  <assay_chembl_id>  (317) 
CHEMBL1243972

>  <standard_relation>  (317) 
=

>  <assay_description>  (317) 
Inhibition of recombinant c-Abl by radioactive phosphotransfer assay in presence of 10 uM ATP

>  <published_relation>  (317) 
=

>  <standard_value>  (317) 
199

>  <qudt_units>  (317) 
http://www.openphacts.org/units/Nanomolar

>  <target_tax_id>  (317) 
9606

>  <bao_label>  (317) 
single protein format

>  <published_units>  (317) 
uM

>  <pchembl_value>  (317) 
6.7

>  <published_type>  (317) 
IC50

>  <activity_comment>  (317) 
None

$$$$

     RDKit          

 22 24  0  0  0  0  0  0  0  0999 V2000
    0.0000    0.0000    0.0000 C   0  0  0  0  0  0  0  0  0  0  0  0
    0.0000    0.0000    0.0000 C   0  0  0  0  0  0  0  0  0  0  0  0
    0.0000    0.0000    0.0000 C   0  0  0  0  0  0  0  0  0  0  0  0
    0.0000    0.0000    0.0000 N   0  0  0  0  0  0  0  0  0  0  0  0
    0.0000    0.0000    0.0000 N   0  0  0  0  0  0  0  0  0  0  0  0
    0.0000    0.0000    0.0000 N   0  0  0  0  0  0  0  0  0  0  0  0
    0.0000    0.0000    0.0000 C   0  0  0  0  0  0  0  0  0  0  0  0
    0.0000    0.0000    0.0000 C   0  0  0  0  0  0  0  0  0  0  0  0
    0.0000    0.0000    0.0000 C   0  0  0  0  0  0  0  0  0  0  0  0
    0.0000    0.0000    0.0000 C   0  0  0  0  0  0  0  0  0  0  0  0
    0.0000    0.0000    0.0000 C   0  0  0  0  0  0  0  0  0  0  0  0
    0.0000    0.0000    0.0000 F   0  0  0  0  0  0  0  0  0  0  0  0
    0.0000    0.0000    0.0000 C   0  0  0  0  0  0  0  0  0  0  0  0
    0.0000    0.0000    0.0000 O   0  0  0  0  0  0  0  0  0  0  0  0
    0.0000    0.0000    0.0000 C   0  0  0  0  0  0  0  0  0  0  0  0
    0.0000    0.0000    0.0000 C   0  0  0  0  0  0  0  0  0  0  0  0
    0.0000    0.0000    0.0000 C   0  0  0  0  0  0  0  0  0  0  0  0
    0.0000    0.0000    0.0000 N   0  0  0  0  0  0  0  0  0  0  0  0
    0.0000    0.0000    0.0000 N   0  0  0  0  0  0  0  0  0  0  0  0
    0.0000    0.0000    0.0000 C   0  0  0  0  0  0  0  0  0  0  0  0
    0.0000    0.0000    0.0000 N   0  0  0  0  0  0  0  0  0  0  0  0
    0.0000    0.0000    0.0000 C   0  0  0  0  0  0  0  0  0  0  0  0
  1  2  1  0
  2  3  1  0
  3  4  1  0
  2  5  1  0
  5  6  1  0
  6  7  2  0
  7  8  1  0
  8  9  2  0
  9 10  1  0
 10 11  2  0
 11 12  1  0
 11 13  1  0
 13 14  1  0
 13 15  2  0
  7 16  1  0
 16 17  2  0
 17 18  1  0
 17 19  1  0
 19 20  2  0
 20 21  1  0
 21 22  2  0
 22  5  1  0
 15  8  1  0
 22 16  1  0
M  END
>  <pIC50>  (318) 
6.14

>  <ChEMBL_ID>  (318) 
CHEMBL1242468

>  <document_journal>  (318) 
Nat. Chem. Biol.

>  <bao_endpoint>  (318) 
BAO_0000190

>  <potential_duplicate>  (318) 
False

>  <uo_units>  (318) 
UO_0000065

>  <canonical_smiles>  (318) 
C[C@@H](CN)n1nc(c2ccc(F)c(O)c2)c3c(N)ncnc13

>  <parent_molecule_chembl_id>  (318) 
CHEMBL1242468

>  <assay_type>  (318) 
B

>  <src_id>  (318) 
1

>  <ligand_efficiency>  (318) 
{u'le': u'0.38', u'bei': u'20.31', u'sei': u'5.3', u'lle': u'4.79'}

>  <standard_flag>  (318) 
True

>  <molecule_chembl_id>  (318) 
CHEMBL1242468

>  <target_organism>  (318) 
Homo sapiens

>  <standard_units>  (318) 
nM

>  <record_id>  (318) 
953702

>  <document_chembl_id>  (318) 
CHEMBL1240340

>  <bao_format>  (318) 
BAO_0000357

>  <data_validity_description>  (318) 
None

>  <activity_id>  (318) 
3440819

>  <standard_type>  (318) 
IC50

>  <target_chembl_id>  (318) 
CHEMBL1862

>  <data_validity_comment>  (318) 
None

>  <published_value>  (318) 
0.726

>  <document_year>  (318) 
2008

>  <target_pref_name>  (318) 
Tyrosine-protein kinase ABL

>  <assay_chembl_id>  (318) 
CHEMBL1243972

>  <standard_relation>  (318) 
=

>  <assay_description>  (318) 
Inhibition of recombinant c-Abl by radioactive phosphotransfer assay in presence of 10 uM ATP

>  <published_relation>  (318) 
=

>  <standard_value>  (318) 
726

>  <qudt_units>  (318) 
http://www.openphacts.org/units/Nanomolar

>  <target_tax_id>  (318) 
9606

>  <bao_label>  (318) 
single protein format

>  <published_units>  (318) 
uM

>  <pchembl_value>  (318) 
6.14

>  <published_type>  (318) 
IC50

>  <activity_comment>  (318) 
None

$$$$

     RDKit          

 23 25  0  0  0  0  0  0  0  0999 V2000
    0.0000    0.0000    0.0000 N   0  0  0  0  0  0  0  0  0  0  0  0
    0.0000    0.0000    0.0000 C   0  0  0  0  0  0  0  0  0  0  0  0
    0.0000    0.0000    0.0000 N   0  0  0  0  0  0  0  0  0  0  0  0
    0.0000    0.0000    0.0000 C   0  0  0  0  0  0  0  0  0  0  0  0
    0.0000    0.0000    0.0000 N   0  0  0  0  0  0  0  0  0  0  0  0
    0.0000    0.0000    0.0000 C   0  0  0  0  0  0  0  0  0  0  0  0
    0.0000    0.0000    0.0000 C   0  0  0  0  0  0  0  0  0  0  0  0
    0.0000    0.0000    0.0000 C   0  0  0  0  0  0  0  0  0  0  0  0
    0.0000    0.0000    0.0000 N   0  0  0  0  0  0  0  0  0  0  0  0
    0.0000    0.0000    0.0000 N   0  0  0  0  0  0  0  0  0  0  0  0
    0.0000    0.0000    0.0000 C   0  0  0  0  0  0  0  0  0  0  0  0
    0.0000    0.0000    0.0000 C   0  0  0  0  0  0  0  0  0  0  0  0
    0.0000    0.0000    0.0000 C   0  0  0  0  0  0  0  0  0  0  0  0
    0.0000    0.0000    0.0000 C   0  0  0  0  0  0  0  0  0  0  0  0
    0.0000    0.0000    0.0000 N   0  0  0  0  0  0  0  0  0  0  0  0
    0.0000    0.0000    0.0000 C   0  0  0  0  0  0  0  0  0  0  0  0
    0.0000    0.0000    0.0000 C   0  0  0  0  0  0  0  0  0  0  0  0
    0.0000    0.0000    0.0000 C   0  0  0  0  0  0  0  0  0  0  0  0
    0.0000    0.0000    0.0000 C   0  0  0  0  0  0  0  0  0  0  0  0
    0.0000    0.0000    0.0000 F   0  0  0  0  0  0  0  0  0  0  0  0
    0.0000    0.0000    0.0000 C   0  0  0  0  0  0  0  0  0  0  0  0
    0.0000    0.0000    0.0000 O   0  0  0  0  0  0  0  0  0  0  0  0
    0.0000    0.0000    0.0000 C   0  0  0  0  0  0  0  0  0  0  0  0
  1  2  1  0
  2  3  2  0
  3  4  1  0
  4  5  2  0
  5  6  1  0
  6  7  2  0
  7  8  1  0
  8  9  2  0
  9 10  1  0
 10 11  1  0
 11 12  1  0
 12 13  1  0
 13 14  1  0
 14 15  3  0
  8 16  1  0
 16 17  2  0
 17 18  1  0
 18 19  2  0
 19 20  1  0
 19 21  1  0
 21 22  1  0
 21 23  2  0
  7  2  1  0
 10  6  1  0
 23 16  1  0
M  END
>  <pIC50>  (319) 
6.02

>  <ChEMBL_ID>  (319) 
CHEMBL1242469

>  <document_journal>  (319) 
Nat. Chem. Biol.

>  <bao_endpoint>  (319) 
BAO_0000190

>  <potential_duplicate>  (319) 
False

>  <uo_units>  (319) 
UO_0000065

>  <canonical_smiles>  (319) 
Nc1ncnc2c1c(nn2CCCC#N)c3ccc(F)c(O)c3

>  <parent_molecule_chembl_id>  (319) 
CHEMBL1242469

>  <assay_type>  (319) 
B

>  <src_id>  (319) 
1

>  <ligand_efficiency>  (319) 
{u'le': u'0.36', u'bei': u'19.26', u'sei': u'5.29', u'lle': u'3.92'}

>  <standard_flag>  (319) 
True

>  <molecule_chembl_id>  (319) 
CHEMBL1242469

>  <target_organism>  (319) 
Homo sapiens

>  <standard_units>  (319) 
nM

>  <record_id>  (319) 
953703

>  <document_chembl_id>  (319) 
CHEMBL1240340

>  <bao_format>  (319) 
BAO_0000357

>  <data_validity_description>  (319) 
None

>  <activity_id>  (319) 
3440833

>  <standard_type>  (319) 
IC50

>  <target_chembl_id>  (319) 
CHEMBL1862

>  <data_validity_comment>  (319) 
None

>  <published_value>  (319) 
0.963

>  <document_year>  (319) 
2008

>  <target_pref_name>  (319) 
Tyrosine-protein kinase ABL

>  <assay_chembl_id>  (319) 
CHEMBL1243972

>  <standard_relation>  (319) 
=

>  <assay_description>  (319) 
Inhibition of recombinant c-Abl by radioactive phosphotransfer assay in presence of 10 uM ATP

>  <published_relation>  (319) 
=

>  <standard_value>  (319) 
963

>  <qudt_units>  (319) 
http://www.openphacts.org/units/Nanomolar

>  <target_tax_id>  (319) 
9606

>  <bao_label>  (319) 
single protein format

>  <published_units>  (319) 
uM

>  <pchembl_value>  (319) 
6.02

>  <published_type>  (319) 
IC50

>  <activity_comment>  (319) 
None

$$$$

     RDKit          

 24 26  0  0  0  0  0  0  0  0999 V2000
    0.0000    0.0000    0.0000 N   0  0  0  0  0  0  0  0  0  0  0  0
    0.0000    0.0000    0.0000 C   0  0  0  0  0  0  0  0  0  0  0  0
    0.0000    0.0000    0.0000 N   0  0  0  0  0  0  0  0  0  0  0  0
    0.0000    0.0000    0.0000 C   0  0  0  0  0  0  0  0  0  0  0  0
    0.0000    0.0000    0.0000 N   0  0  0  0  0  0  0  0  0  0  0  0
    0.0000    0.0000    0.0000 C   0  0  0  0  0  0  0  0  0  0  0  0
    0.0000    0.0000    0.0000 C   0  0  0  0  0  0  0  0  0  0  0  0
    0.0000    0.0000    0.0000 C   0  0  0  0  0  0  0  0  0  0  0  0
    0.0000    0.0000    0.0000 N   0  0  0  0  0  0  0  0  0  0  0  0
    0.0000    0.0000    0.0000 N   0  0  0  0  0  0  0  0  0  0  0  0
    0.0000    0.0000    0.0000 C   0  0  0  0  0  0  0  0  0  0  0  0
    0.0000    0.0000    0.0000 C   0  0  0  0  0  0  0  0  0  0  0  0
    0.0000    0.0000    0.0000 C   0  0  0  0  0  0  0  0  0  0  0  0
    0.0000    0.0000    0.0000 C   0  0  0  0  0  0  0  0  0  0  0  0
    0.0000    0.0000    0.0000 C   0  0  0  0  0  0  0  0  0  0  0  0
    0.0000    0.0000    0.0000 N   0  0  0  0  0  0  0  0  0  0  0  0
    0.0000    0.0000    0.0000 C   0  0  0  0  0  0  0  0  0  0  0  0
    0.0000    0.0000    0.0000 C   0  0  0  0  0  0  0  0  0  0  0  0
    0.0000    0.0000    0.0000 C   0  0  0  0  0  0  0  0  0  0  0  0
    0.0000    0.0000    0.0000 C   0  0  0  0  0  0  0  0  0  0  0  0
    0.0000    0.0000    0.0000 F   0  0  0  0  0  0  0  0  0  0  0  0
    0.0000    0.0000    0.0000 C   0  0  0  0  0  0  0  0  0  0  0  0
    0.0000    0.0000    0.0000 O   0  0  0  0  0  0  0  0  0  0  0  0
    0.0000    0.0000    0.0000 C   0  0  0  0  0  0  0  0  0  0  0  0
  1  2  1  0
  2  3  2  0
  3  4  1  0
  4  5  2  0
  5  6  1  0
  6  7  2  0
  7  8  1  0
  8  9  2  0
  9 10  1  0
 10 11  1  0
 11 12  1  0
 12 13  1  0
 13 14  1  0
 14 15  1  0
 15 16  3  0
  8 17  1  0
 17 18  2  0
 18 19  1  0
 19 20  2  0
 20 21  1  0
 20 22  1  0
 22 23  1  0
 22 24  2  0
  7  2  1  0
 10  6  1  0
 24 17  1  0
M  END
>  <pIC50>  (320) 
6.36

>  <ChEMBL_ID>  (320) 
CHEMBL1242470

>  <document_journal>  (320) 
Nat. Chem. Biol.

>  <bao_endpoint>  (320) 
BAO_0000190

>  <potential_duplicate>  (320) 
False

>  <uo_units>  (320) 
UO_0000065

>  <canonical_smiles>  (320) 
Nc1ncnc2c1c(nn2CCCCC#N)c3ccc(F)c(O)c3

>  <parent_molecule_chembl_id>  (320) 
CHEMBL1242470

>  <assay_type>  (320) 
B

>  <src_id>  (320) 
1

>  <ligand_efficiency>  (320) 
{u'le': u'0.36', u'bei': u'19.5', u'sei': u'5.6', u'lle': u'3.8'}

>  <standard_flag>  (320) 
True

>  <molecule_chembl_id>  (320) 
CHEMBL1242470

>  <target_organism>  (320) 
Homo sapiens

>  <standard_units>  (320) 
nM

>  <record_id>  (320) 
953704

>  <document_chembl_id>  (320) 
CHEMBL1240340

>  <bao_format>  (320) 
BAO_0000357

>  <data_validity_description>  (320) 
None

>  <activity_id>  (320) 
3440847

>  <standard_type>  (320) 
IC50

>  <target_chembl_id>  (320) 
CHEMBL1862

>  <data_validity_comment>  (320) 
None

>  <published_value>  (320) 
0.433

>  <document_year>  (320) 
2008

>  <target_pref_name>  (320) 
Tyrosine-protein kinase ABL

>  <assay_chembl_id>  (320) 
CHEMBL1243972

>  <standard_relation>  (320) 
=

>  <assay_description>  (320) 
Inhibition of recombinant c-Abl by radioactive phosphotransfer assay in presence of 10 uM ATP

>  <published_relation>  (320) 
=

>  <standard_value>  (320) 
433

>  <qudt_units>  (320) 
http://www.openphacts.org/units/Nanomolar

>  <target_tax_id>  (320) 
9606

>  <bao_label>  (320) 
single protein format

>  <published_units>  (320) 
uM

>  <pchembl_value>  (320) 
6.36

>  <published_type>  (320) 
IC50

>  <activity_comment>  (320) 
None

$$$$

     RDKit          

 22 25  0  0  0  0  0  0  0  0999 V2000
    0.0000    0.0000    0.0000 N   0  0  0  0  0  0  0  0  0  0  0  0
    0.0000    0.0000    0.0000 C   0  0  0  0  0  0  0  0  0  0  0  0
    0.0000    0.0000    0.0000 N   0  0  0  0  0  0  0  0  0  0  0  0
    0.0000    0.0000    0.0000 C   0  0  0  0  0  0  0  0  0  0  0  0
    0.0000    0.0000    0.0000 N   0  0  0  0  0  0  0  0  0  0  0  0
    0.0000    0.0000    0.0000 C   0  0  0  0  0  0  0  0  0  0  0  0
    0.0000    0.0000    0.0000 C   0  0  0  0  0  0  0  0  0  0  0  0
    0.0000    0.0000    0.0000 C   0  0  0  0  0  0  0  0  0  0  0  0
    0.0000    0.0000    0.0000 N   0  0  0  0  0  0  0  0  0  0  0  0
    0.0000    0.0000    0.0000 N   0  0  0  0  0  0  0  0  0  0  0  0
    0.0000    0.0000    0.0000 C   0  0  0  0  0  0  0  0  0  0  0  0
    0.0000    0.0000    0.0000 C   0  0  0  0  0  0  0  0  0  0  0  0
    0.0000    0.0000    0.0000 C   0  0  0  0  0  0  0  0  0  0  0  0
    0.0000    0.0000    0.0000 C   0  0  0  0  0  0  0  0  0  0  0  0
    0.0000    0.0000    0.0000 C   0  0  0  0  0  0  0  0  0  0  0  0
    0.0000    0.0000    0.0000 C   0  0  0  0  0  0  0  0  0  0  0  0
    0.0000    0.0000    0.0000 C   0  0  0  0  0  0  0  0  0  0  0  0
    0.0000    0.0000    0.0000 C   0  0  0  0  0  0  0  0  0  0  0  0
    0.0000    0.0000    0.0000 F   0  0  0  0  0  0  0  0  0  0  0  0
    0.0000    0.0000    0.0000 C   0  0  0  0  0  0  0  0  0  0  0  0
    0.0000    0.0000    0.0000 O   0  0  0  0  0  0  0  0  0  0  0  0
    0.0000    0.0000    0.0000 C   0  0  0  0  0  0  0  0  0  0  0  0
  1  2  1  0
  2  3  2  0
  3  4  1  0
  4  5  2  0
  5  6  1  0
  6  7  2  0
  7  8  1  0
  8  9  2  0
  9 10  1  0
 10 11  1  0
 11 12  1  0
 12 13  1  0
 13 14  1  0
  8 15  1  0
 15 16  2  0
 16 17  1  0
 17 18  2  0
 18 19  1  0
 18 20  1  0
 20 21  1  0
 20 22  2  0
  7  2  1  0
 10  6  1  0
 14 11  1  0
 22 15  1  0
M  END
>  <pIC50>  (321) 
7.26

>  <ChEMBL_ID>  (321) 
CHEMBL1242566

>  <document_journal>  (321) 
Nat. Chem. Biol.

>  <bao_endpoint>  (321) 
BAO_0000190

>  <potential_duplicate>  (321) 
False

>  <uo_units>  (321) 
UO_0000065

>  <canonical_smiles>  (321) 
Nc1ncnc2c1c(nn2C3CCC3)c4ccc(F)c(O)c4

>  <parent_molecule_chembl_id>  (321) 
CHEMBL1242566

>  <assay_type>  (321) 
B

>  <src_id>  (321) 
1

>  <ligand_efficiency>  (321) 
{u'le': u'0.45', u'bei': u'24.26', u'sei': u'8.08', u'lle': u'4.51'}

>  <standard_flag>  (321) 
True

>  <molecule_chembl_id>  (321) 
CHEMBL1242566

>  <target_organism>  (321) 
Homo sapiens

>  <standard_units>  (321) 
nM

>  <record_id>  (321) 
953830

>  <document_chembl_id>  (321) 
CHEMBL1240340

>  <bao_format>  (321) 
BAO_0000357

>  <data_validity_description>  (321) 
None

>  <activity_id>  (321) 
3440861

>  <standard_type>  (321) 
IC50

>  <target_chembl_id>  (321) 
CHEMBL1862

>  <data_validity_comment>  (321) 
None

>  <published_value>  (321) 
0.055

>  <document_year>  (321) 
2008

>  <target_pref_name>  (321) 
Tyrosine-protein kinase ABL

>  <assay_chembl_id>  (321) 
CHEMBL1243972

>  <standard_relation>  (321) 
=

>  <assay_description>  (321) 
Inhibition of recombinant c-Abl by radioactive phosphotransfer assay in presence of 10 uM ATP

>  <published_relation>  (321) 
=

>  <standard_value>  (321) 
55

>  <qudt_units>  (321) 
http://www.openphacts.org/units/Nanomolar

>  <target_tax_id>  (321) 
9606

>  <bao_label>  (321) 
single protein format

>  <published_units>  (321) 
uM

>  <pchembl_value>  (321) 
7.26

>  <published_type>  (321) 
IC50

>  <activity_comment>  (321) 
None

$$$$

     RDKit          

 22 25  0  0  0  0  0  0  0  0999 V2000
    0.0000    0.0000    0.0000 N   0  0  0  0  0  0  0  0  0  0  0  0
    0.0000    0.0000    0.0000 C   0  0  0  0  0  0  0  0  0  0  0  0
    0.0000    0.0000    0.0000 N   0  0  0  0  0  0  0  0  0  0  0  0
    0.0000    0.0000    0.0000 C   0  0  0  0  0  0  0  0  0  0  0  0
    0.0000    0.0000    0.0000 N   0  0  0  0  0  0  0  0  0  0  0  0
    0.0000    0.0000    0.0000 C   0  0  0  0  0  0  0  0  0  0  0  0
    0.0000    0.0000    0.0000 C   0  0  0  0  0  0  0  0  0  0  0  0
    0.0000    0.0000    0.0000 C   0  0  0  0  0  0  0  0  0  0  0  0
    0.0000    0.0000    0.0000 N   0  0  0  0  0  0  0  0  0  0  0  0
    0.0000    0.0000    0.0000 N   0  0  0  0  0  0  0  0  0  0  0  0
    0.0000    0.0000    0.0000 C   0  0  0  0  0  0  0  0  0  0  0  0
    0.0000    0.0000    0.0000 C   0  0  0  0  0  0  0  0  0  0  0  0
    0.0000    0.0000    0.0000 N   0  0  0  0  0  0  0  0  0  0  0  0
    0.0000    0.0000    0.0000 C   0  0  0  0  0  0  0  0  0  0  0  0
    0.0000    0.0000    0.0000 C   0  0  0  0  0  0  0  0  0  0  0  0
    0.0000    0.0000    0.0000 C   0  0  0  0  0  0  0  0  0  0  0  0
    0.0000    0.0000    0.0000 C   0  0  0  0  0  0  0  0  0  0  0  0
    0.0000    0.0000    0.0000 C   0  0  0  0  0  0  0  0  0  0  0  0
    0.0000    0.0000    0.0000 F   0  0  0  0  0  0  0  0  0  0  0  0
    0.0000    0.0000    0.0000 C   0  0  0  0  0  0  0  0  0  0  0  0
    0.0000    0.0000    0.0000 O   0  0  0  0  0  0  0  0  0  0  0  0
    0.0000    0.0000    0.0000 C   0  0  0  0  0  0  0  0  0  0  0  0
  1  2  1  0
  2  3  2  0
  3  4  1  0
  4  5  2  0
  5  6  1  0
  6  7  2  0
  7  8  1  0
  8  9  2  0
  9 10  1  0
 10 11  1  0
 11 12  1  0
 12 13  1  0
 13 14  1  0
  8 15  1  0
 15 16  2  0
 16 17  1  0
 17 18  2  0
 18 19  1  0
 18 20  1  0
 20 21  1  0
 20 22  2  0
  7  2  1  0
 10  6  1  0
 14 11  1  0
 22 15  1  0
M  END
>  <pIC50>  (322) 
6.53

>  <ChEMBL_ID>  (322) 
CHEMBL1242567

>  <document_journal>  (322) 
Nat. Chem. Biol.

>  <bao_endpoint>  (322) 
BAO_0000190

>  <potential_duplicate>  (322) 
False

>  <uo_units>  (322) 
UO_0000065

>  <canonical_smiles>  (322) 
Nc1ncnc2c1c(nn2C3CNC3)c4ccc(F)c(O)c4

>  <parent_molecule_chembl_id>  (322) 
CHEMBL1242567

>  <assay_type>  (322) 
B

>  <src_id>  (322) 
1

>  <ligand_efficiency>  (322) 
{u'le': u'0.41', u'bei': u'21.76', u'sei': u'6.41', u'lle': u'5.28'}

>  <standard_flag>  (322) 
True

>  <molecule_chembl_id>  (322) 
CHEMBL1242567

>  <target_organism>  (322) 
Homo sapiens

>  <standard_units>  (322) 
nM

>  <record_id>  (322) 
953831

>  <document_chembl_id>  (322) 
CHEMBL1240340

>  <bao_format>  (322) 
BAO_0000357

>  <data_validity_description>  (322) 
None

>  <activity_id>  (322) 
3440875

>  <standard_type>  (322) 
IC50

>  <target_chembl_id>  (322) 
CHEMBL1862

>  <data_validity_comment>  (322) 
None

>  <published_value>  (322) 
0.293

>  <document_year>  (322) 
2008

>  <target_pref_name>  (322) 
Tyrosine-protein kinase ABL

>  <assay_chembl_id>  (322) 
CHEMBL1243972

>  <standard_relation>  (322) 
=

>  <assay_description>  (322) 
Inhibition of recombinant c-Abl by radioactive phosphotransfer assay in presence of 10 uM ATP

>  <published_relation>  (322) 
=

>  <standard_value>  (322) 
293

>  <qudt_units>  (322) 
http://www.openphacts.org/units/Nanomolar

>  <target_tax_id>  (322) 
9606

>  <bao_label>  (322) 
single protein format

>  <published_units>  (322) 
uM

>  <pchembl_value>  (322) 
6.53

>  <published_type>  (322) 
IC50

>  <activity_comment>  (322) 
None

$$$$

     RDKit          

 23 26  0  0  0  0  0  0  0  0999 V2000
    0.0000    0.0000    0.0000 N   0  0  0  0  0  0  0  0  0  0  0  0
    0.0000    0.0000    0.0000 C   0  0  0  0  0  0  0  0  0  0  0  0
    0.0000    0.0000    0.0000 N   0  0  0  0  0  0  0  0  0  0  0  0
    0.0000    0.0000    0.0000 C   0  0  0  0  0  0  0  0  0  0  0  0
    0.0000    0.0000    0.0000 N   0  0  0  0  0  0  0  0  0  0  0  0
    0.0000    0.0000    0.0000 C   0  0  0  0  0  0  0  0  0  0  0  0
    0.0000    0.0000    0.0000 C   0  0  0  0  0  0  0  0  0  0  0  0
    0.0000    0.0000    0.0000 C   0  0  0  0  0  0  0  0  0  0  0  0
    0.0000    0.0000    0.0000 N   0  0  0  0  0  0  0  0  0  0  0  0
    0.0000    0.0000    0.0000 N   0  0  0  0  0  0  0  0  0  0  0  0
    0.0000    0.0000    0.0000 C   0  0  0  0  0  0  0  0  0  0  0  0
    0.0000    0.0000    0.0000 C   0  0  0  0  0  0  0  0  0  0  0  0
    0.0000    0.0000    0.0000 C   0  0  0  0  0  0  0  0  0  0  0  0
    0.0000    0.0000    0.0000 C   0  0  0  0  0  0  0  0  0  0  0  0
    0.0000    0.0000    0.0000 C   0  0  0  0  0  0  0  0  0  0  0  0
    0.0000    0.0000    0.0000 C   0  0  0  0  0  0  0  0  0  0  0  0
    0.0000    0.0000    0.0000 C   0  0  0  0  0  0  0  0  0  0  0  0
    0.0000    0.0000    0.0000 C   0  0  0  0  0  0  0  0  0  0  0  0
    0.0000    0.0000    0.0000 C   0  0  0  0  0  0  0  0  0  0  0  0
    0.0000    0.0000    0.0000 F   0  0  0  0  0  0  0  0  0  0  0  0
    0.0000    0.0000    0.0000 C   0  0  0  0  0  0  0  0  0  0  0  0
    0.0000    0.0000    0.0000 O   0  0  0  0  0  0  0  0  0  0  0  0
    0.0000    0.0000    0.0000 C   0  0  0  0  0  0  0  0  0  0  0  0
  1  2  1  0
  2  3  2  0
  3  4  1  0
  4  5  2  0
  5  6  1  0
  6  7  2  0
  7  8  1  0
  8  9  2  0
  9 10  1  0
 10 11  1  0
 11 12  1  0
 12 13  1  0
 13 14  1  0
 14 15  1  0
  8 16  1  0
 16 17  2  0
 17 18  1  0
 18 19  2  0
 19 20  1  0
 19 21  1  0
 21 22  1  0
 21 23  2  0
  7  2  1  0
 10  6  1  0
 15 11  1  0
 23 16  1  0
M  END
>  <pIC50>  (323) 
8.37

>  <ChEMBL_ID>  (323) 
CHEMBL1242568

>  <document_journal>  (323) 
Nat. Chem. Biol.

>  <bao_endpoint>  (323) 
BAO_0000190

>  <potential_duplicate>  (323) 
False

>  <uo_units>  (323) 
UO_0000065

>  <canonical_smiles>  (323) 
Nc1ncnc2c1c(nn2C3CCCC3)c4ccc(F)c(O)c4

>  <parent_molecule_chembl_id>  (323) 
CHEMBL1242568

>  <assay_type>  (323) 
B

>  <src_id>  (323) 
1

>  <ligand_efficiency>  (323) 
{u'le': u'0.5', u'bei': u'26.7', u'sei': u'9.31', u'lle': u'5.16'}

>  <standard_flag>  (323) 
True

>  <molecule_chembl_id>  (323) 
CHEMBL1242568

>  <target_organism>  (323) 
Homo sapiens

>  <standard_units>  (323) 
nM

>  <record_id>  (323) 
953832

>  <document_chembl_id>  (323) 
CHEMBL1240340

>  <bao_format>  (323) 
BAO_0000357

>  <data_validity_description>  (323) 
None

>  <activity_id>  (323) 
3440889

>  <standard_type>  (323) 
IC50

>  <target_chembl_id>  (323) 
CHEMBL1862

>  <data_validity_comment>  (323) 
None

>  <published_value>  (323) 
0.0043

>  <document_year>  (323) 
2008

>  <target_pref_name>  (323) 
Tyrosine-protein kinase ABL

>  <assay_chembl_id>  (323) 
CHEMBL1243972

>  <standard_relation>  (323) 
=

>  <assay_description>  (323) 
Inhibition of recombinant c-Abl by radioactive phosphotransfer assay in presence of 10 uM ATP

>  <published_relation>  (323) 
=

>  <standard_value>  (323) 
4.3

>  <qudt_units>  (323) 
http://www.openphacts.org/units/Nanomolar

>  <target_tax_id>  (323) 
9606

>  <bao_label>  (323) 
single protein format

>  <published_units>  (323) 
uM

>  <pchembl_value>  (323) 
8.37

>  <published_type>  (323) 
IC50

>  <activity_comment>  (323) 
None

$$$$

     RDKit          

 24 27  0  0  0  0  0  0  0  0999 V2000
    0.0000    0.0000    0.0000 C   0  0  0  0  0  0  0  0  0  0  0  0
    0.0000    0.0000    0.0000 C   0  0  0  0  0  0  0  0  0  0  0  0
    0.0000    0.0000    0.0000 C   0  0  0  0  0  0  0  0  0  0  0  0
    0.0000    0.0000    0.0000 C   0  0  0  0  0  0  0  0  0  0  0  0
    0.0000    0.0000    0.0000 C   0  0  0  0  0  0  0  0  0  0  0  0
    0.0000    0.0000    0.0000 C   0  0  0  0  0  0  0  0  0  0  0  0
    0.0000    0.0000    0.0000 N   0  0  0  0  0  0  0  0  0  0  0  0
    0.0000    0.0000    0.0000 N   0  0  0  0  0  0  0  0  0  0  0  0
    0.0000    0.0000    0.0000 C   0  0  0  0  0  0  0  0  0  0  0  0
    0.0000    0.0000    0.0000 C   0  0  0  0  0  0  0  0  0  0  0  0
    0.0000    0.0000    0.0000 C   0  0  0  0  0  0  0  0  0  0  0  0
    0.0000    0.0000    0.0000 C   0  0  0  0  0  0  0  0  0  0  0  0
    0.0000    0.0000    0.0000 C   0  0  0  0  0  0  0  0  0  0  0  0
    0.0000    0.0000    0.0000 F   0  0  0  0  0  0  0  0  0  0  0  0
    0.0000    0.0000    0.0000 C   0  0  0  0  0  0  0  0  0  0  0  0
    0.0000    0.0000    0.0000 O   0  0  0  0  0  0  0  0  0  0  0  0
    0.0000    0.0000    0.0000 C   0  0  0  0  0  0  0  0  0  0  0  0
    0.0000    0.0000    0.0000 C   0  0  0  0  0  0  0  0  0  0  0  0
    0.0000    0.0000    0.0000 C   0  0  0  0  0  0  0  0  0  0  0  0
    0.0000    0.0000    0.0000 N   0  0  0  0  0  0  0  0  0  0  0  0
    0.0000    0.0000    0.0000 N   0  0  0  0  0  0  0  0  0  0  0  0
    0.0000    0.0000    0.0000 C   0  0  0  0  0  0  0  0  0  0  0  0
    0.0000    0.0000    0.0000 N   0  0  0  0  0  0  0  0  0  0  0  0
    0.0000    0.0000    0.0000 C   0  0  0  0  0  0  0  0  0  0  0  0
  1  2  1  0
  2  3  1  0
  3  4  1  0
  4  5  1  0
  5  6  1  0
  5  7  1  0
  7  8  1  0
  8  9  2  0
  9 10  1  0
 10 11  2  0
 11 12  1  0
 12 13  2  0
 13 14  1  0
 13 15  1  0
 15 16  1  0
 15 17  2  0
  9 18  1  0
 18 19  2  0
 19 20  1  0
 19 21  1  0
 21 22  2  0
 22 23  1  0
 23 24  2  0
  6  2  1  0
 24  7  1  0
 17 10  1  0
 24 18  1  0
M  END
>  <pIC50>  (324) 
8.19

>  <ChEMBL_ID>  (324) 
CHEMBL1242656

>  <document_journal>  (324) 
Nat. Chem. Biol.

>  <bao_endpoint>  (324) 
BAO_0000190

>  <potential_duplicate>  (324) 
False

>  <uo_units>  (324) 
UO_0000065

>  <canonical_smiles>  (324) 
CC1CCC(C1)n2nc(c3ccc(F)c(O)c3)c4c(N)ncnc24

>  <parent_molecule_chembl_id>  (324) 
CHEMBL1242656

>  <assay_type>  (324) 
B

>  <src_id>  (324) 
1

>  <ligand_efficiency>  (324) 
{u'le': u'0.47', u'bei': u'25.03', u'sei': u'9.12', u'lle': u'4.73'}

>  <standard_flag>  (324) 
True

>  <molecule_chembl_id>  (324) 
CHEMBL1242656

>  <target_organism>  (324) 
Homo sapiens

>  <standard_units>  (324) 
nM

>  <record_id>  (324) 
953958

>  <document_chembl_id>  (324) 
CHEMBL1240340

>  <bao_format>  (324) 
BAO_0000357

>  <data_validity_description>  (324) 
None

>  <activity_id>  (324) 
3440903

>  <standard_type>  (324) 
IC50

>  <target_chembl_id>  (324) 
CHEMBL1862

>  <data_validity_comment>  (324) 
None

>  <published_value>  (324) 
0.0064

>  <document_year>  (324) 
2008

>  <target_pref_name>  (324) 
Tyrosine-protein kinase ABL

>  <assay_chembl_id>  (324) 
CHEMBL1243972

>  <standard_relation>  (324) 
=

>  <assay_description>  (324) 
Inhibition of recombinant c-Abl by radioactive phosphotransfer assay in presence of 10 uM ATP

>  <published_relation>  (324) 
=

>  <standard_value>  (324) 
6.4

>  <qudt_units>  (324) 
http://www.openphacts.org/units/Nanomolar

>  <target_tax_id>  (324) 
9606

>  <bao_label>  (324) 
single protein format

>  <published_units>  (324) 
uM

>  <pchembl_value>  (324) 
8.19

>  <published_type>  (324) 
IC50

>  <activity_comment>  (324) 
None

$$$$

     RDKit          

 23 26  0  0  0  0  0  0  0  0999 V2000
    0.0000    0.0000    0.0000 N   0  0  0  0  0  0  0  0  0  0  0  0
    0.0000    0.0000    0.0000 C   0  0  0  0  0  0  0  0  0  0  0  0
    0.0000    0.0000    0.0000 N   0  0  0  0  0  0  0  0  0  0  0  0
    0.0000    0.0000    0.0000 C   0  0  0  0  0  0  0  0  0  0  0  0
    0.0000    0.0000    0.0000 N   0  0  0  0  0  0  0  0  0  0  0  0
    0.0000    0.0000    0.0000 C   0  0  0  0  0  0  0  0  0  0  0  0
    0.0000    0.0000    0.0000 C   0  0  0  0  0  0  0  0  0  0  0  0
    0.0000    0.0000    0.0000 C   0  0  0  0  0  0  0  0  0  0  0  0
    0.0000    0.0000    0.0000 N   0  0  0  0  0  0  0  0  0  0  0  0
    0.0000    0.0000    0.0000 N   0  0  0  0  0  0  0  0  0  0  0  0
    0.0000    0.0000    0.0000 C   0  0  0  0  0  0  0  0  0  0  0  0
    0.0000    0.0000    0.0000 C   0  0  0  0  0  0  0  0  0  0  0  0
    0.0000    0.0000    0.0000 C   0  0  0  0  0  0  0  0  0  0  0  0
    0.0000    0.0000    0.0000 N   0  0  0  0  0  0  0  0  0  0  0  0
    0.0000    0.0000    0.0000 C   0  0  0  0  0  0  0  0  0  0  0  0
    0.0000    0.0000    0.0000 C   0  0  0  0  0  0  0  0  0  0  0  0
    0.0000    0.0000    0.0000 C   0  0  0  0  0  0  0  0  0  0  0  0
    0.0000    0.0000    0.0000 C   0  0  0  0  0  0  0  0  0  0  0  0
    0.0000    0.0000    0.0000 C   0  0  0  0  0  0  0  0  0  0  0  0
    0.0000    0.0000    0.0000 F   0  0  0  0  0  0  0  0  0  0  0  0
    0.0000    0.0000    0.0000 C   0  0  0  0  0  0  0  0  0  0  0  0
    0.0000    0.0000    0.0000 O   0  0  0  0  0  0  0  0  0  0  0  0
    0.0000    0.0000    0.0000 C   0  0  0  0  0  0  0  0  0  0  0  0
  1  2  1  0
  2  3  2  0
  3  4  1  0
  4  5  2  0
  5  6  1  0
  6  7  2  0
  7  8  1  0
  8  9  2  0
  9 10  1  0
 10 11  1  0
 11 12  1  0
 12 13  1  0
 13 14  1  0
 14 15  1  0
  8 16  1  0
 16 17  2  0
 17 18  1  0
 18 19  2  0
 19 20  1  0
 19 21  1  0
 21 22  1  0
 21 23  2  0
  7  2  1  0
 10  6  1  0
 15 11  1  0
 23 16  1  0
M  END
>  <pIC50>  (325) 
7.14

>  <ChEMBL_ID>  (325) 
CHEMBL1242657

>  <document_journal>  (325) 
Nat. Chem. Biol.

>  <bao_endpoint>  (325) 
BAO_0000190

>  <potential_duplicate>  (325) 
False

>  <uo_units>  (325) 
UO_0000065

>  <canonical_smiles>  (325) 
Nc1ncnc2c1c(nn2[C@H]3CCNC3)c4ccc(F)c(O)c4

>  <parent_molecule_chembl_id>  (325) 
CHEMBL1242657

>  <assay_type>  (325) 
B

>  <src_id>  (325) 
1

>  <ligand_efficiency>  (325) 
{u'le': u'0.42', u'bei': u'22.72', u'sei': u'7.01', u'lle': u'5.82'}

>  <standard_flag>  (325) 
True

>  <molecule_chembl_id>  (325) 
CHEMBL1242657

>  <target_organism>  (325) 
Homo sapiens

>  <standard_units>  (325) 
nM

>  <record_id>  (325) 
953959

>  <document_chembl_id>  (325) 
CHEMBL1240340

>  <bao_format>  (325) 
BAO_0000357

>  <data_validity_description>  (325) 
None

>  <activity_id>  (325) 
3440917

>  <standard_type>  (325) 
IC50

>  <target_chembl_id>  (325) 
CHEMBL1862

>  <data_validity_comment>  (325) 
None

>  <published_value>  (325) 
0.072

>  <document_year>  (325) 
2008

>  <target_pref_name>  (325) 
Tyrosine-protein kinase ABL

>  <assay_chembl_id>  (325) 
CHEMBL1243972

>  <standard_relation>  (325) 
=

>  <assay_description>  (325) 
Inhibition of recombinant c-Abl by radioactive phosphotransfer assay in presence of 10 uM ATP

>  <published_relation>  (325) 
=

>  <standard_value>  (325) 
72

>  <qudt_units>  (325) 
http://www.openphacts.org/units/Nanomolar

>  <target_tax_id>  (325) 
9606

>  <bao_label>  (325) 
single protein format

>  <published_units>  (325) 
uM

>  <pchembl_value>  (325) 
7.14

>  <published_type>  (325) 
IC50

>  <activity_comment>  (325) 
None

$$$$

     RDKit          

 23 26  0  0  0  0  0  0  0  0999 V2000
    0.0000    0.0000    0.0000 N   0  0  0  0  0  0  0  0  0  0  0  0
    0.0000    0.0000    0.0000 C   0  0  0  0  0  0  0  0  0  0  0  0
    0.0000    0.0000    0.0000 N   0  0  0  0  0  0  0  0  0  0  0  0
    0.0000    0.0000    0.0000 C   0  0  0  0  0  0  0  0  0  0  0  0
    0.0000    0.0000    0.0000 N   0  0  0  0  0  0  0  0  0  0  0  0
    0.0000    0.0000    0.0000 C   0  0  0  0  0  0  0  0  0  0  0  0
    0.0000    0.0000    0.0000 C   0  0  0  0  0  0  0  0  0  0  0  0
    0.0000    0.0000    0.0000 C   0  0  0  0  0  0  0  0  0  0  0  0
    0.0000    0.0000    0.0000 N   0  0  0  0  0  0  0  0  0  0  0  0
    0.0000    0.0000    0.0000 N   0  0  0  0  0  0  0  0  0  0  0  0
    0.0000    0.0000    0.0000 C   0  0  0  0  0  0  0  0  0  0  0  0
    0.0000    0.0000    0.0000 C   0  0  0  0  0  0  0  0  0  0  0  0
    0.0000    0.0000    0.0000 C   0  0  0  0  0  0  0  0  0  0  0  0
    0.0000    0.0000    0.0000 N   0  0  0  0  0  0  0  0  0  0  0  0
    0.0000    0.0000    0.0000 C   0  0  0  0  0  0  0  0  0  0  0  0
    0.0000    0.0000    0.0000 C   0  0  0  0  0  0  0  0  0  0  0  0
    0.0000    0.0000    0.0000 C   0  0  0  0  0  0  0  0  0  0  0  0
    0.0000    0.0000    0.0000 C   0  0  0  0  0  0  0  0  0  0  0  0
    0.0000    0.0000    0.0000 C   0  0  0  0  0  0  0  0  0  0  0  0
    0.0000    0.0000    0.0000 F   0  0  0  0  0  0  0  0  0  0  0  0
    0.0000    0.0000    0.0000 C   0  0  0  0  0  0  0  0  0  0  0  0
    0.0000    0.0000    0.0000 O   0  0  0  0  0  0  0  0  0  0  0  0
    0.0000    0.0000    0.0000 C   0  0  0  0  0  0  0  0  0  0  0  0
  1  2  1  0
  2  3  2  0
  3  4  1  0
  4  5  2  0
  5  6  1  0
  6  7  2  0
  7  8  1  0
  8  9  2  0
  9 10  1  0
 10 11  1  0
 11 12  1  0
 12 13  1  0
 13 14  1  0
 14 15  1  0
  8 16  1  0
 16 17  2  0
 17 18  1  0
 18 19  2  0
 19 20  1  0
 19 21  1  0
 21 22  1  0
 21 23  2  0
  7  2  1  0
 10  6  1  0
 15 11  1  0
 23 16  1  0
M  END
>  <pIC50>  (326) 
6.32

>  <ChEMBL_ID>  (326) 
CHEMBL1242658

>  <document_journal>  (326) 
Nat. Chem. Biol.

>  <bao_endpoint>  (326) 
BAO_0000190

>  <potential_duplicate>  (326) 
False

>  <uo_units>  (326) 
UO_0000065

>  <canonical_smiles>  (326) 
Nc1ncnc2c1c(nn2[C@@H]3CCNC3)c4ccc(F)c(O)c4

>  <parent_molecule_chembl_id>  (326) 
CHEMBL1242658

>  <assay_type>  (326) 
B

>  <src_id>  (326) 
1

>  <ligand_efficiency>  (326) 
{u'le': u'0.38', u'bei': u'20.09', u'sei': u'6.2', u'lle': u'5'}

>  <standard_flag>  (326) 
True

>  <molecule_chembl_id>  (326) 
CHEMBL1242658

>  <target_organism>  (326) 
Homo sapiens

>  <standard_units>  (326) 
nM

>  <record_id>  (326) 
953960

>  <document_chembl_id>  (326) 
CHEMBL1240340

>  <bao_format>  (326) 
BAO_0000357

>  <data_validity_description>  (326) 
None

>  <activity_id>  (326) 
3440931

>  <standard_type>  (326) 
IC50

>  <target_chembl_id>  (326) 
CHEMBL1862

>  <data_validity_comment>  (326) 
None

>  <published_value>  (326) 
0.483

>  <document_year>  (326) 
2008

>  <target_pref_name>  (326) 
Tyrosine-protein kinase ABL

>  <assay_chembl_id>  (326) 
CHEMBL1243972

>  <standard_relation>  (326) 
=

>  <assay_description>  (326) 
Inhibition of recombinant c-Abl by radioactive phosphotransfer assay in presence of 10 uM ATP

>  <published_relation>  (326) 
=

>  <standard_value>  (326) 
483

>  <qudt_units>  (326) 
http://www.openphacts.org/units/Nanomolar

>  <target_tax_id>  (326) 
9606

>  <bao_label>  (326) 
single protein format

>  <published_units>  (326) 
uM

>  <pchembl_value>  (326) 
6.32

>  <published_type>  (326) 
IC50

>  <activity_comment>  (326) 
None

$$$$

     RDKit          

 23 26  0  0  0  0  0  0  0  0999 V2000
    0.0000    0.0000    0.0000 N   0  0  0  0  0  0  0  0  0  0  0  0
    0.0000    0.0000    0.0000 C   0  0  0  0  0  0  0  0  0  0  0  0
    0.0000    0.0000    0.0000 N   0  0  0  0  0  0  0  0  0  0  0  0
    0.0000    0.0000    0.0000 C   0  0  0  0  0  0  0  0  0  0  0  0
    0.0000    0.0000    0.0000 N   0  0  0  0  0  0  0  0  0  0  0  0
    0.0000    0.0000    0.0000 C   0  0  0  0  0  0  0  0  0  0  0  0
    0.0000    0.0000    0.0000 C   0  0  0  0  0  0  0  0  0  0  0  0
    0.0000    0.0000    0.0000 C   0  0  0  0  0  0  0  0  0  0  0  0
    0.0000    0.0000    0.0000 N   0  0  0  0  0  0  0  0  0  0  0  0
    0.0000    0.0000    0.0000 N   0  0  0  0  0  0  0  0  0  0  0  0
    0.0000    0.0000    0.0000 C   0  0  0  0  0  0  0  0  0  0  0  0
    0.0000    0.0000    0.0000 C   0  0  0  0  0  0  0  0  0  0  0  0
    0.0000    0.0000    0.0000 C   0  0  0  0  0  0  0  0  0  0  0  0
    0.0000    0.0000    0.0000 O   0  0  0  0  0  0  0  0  0  0  0  0
    0.0000    0.0000    0.0000 C   0  0  0  0  0  0  0  0  0  0  0  0
    0.0000    0.0000    0.0000 C   0  0  0  0  0  0  0  0  0  0  0  0
    0.0000    0.0000    0.0000 C   0  0  0  0  0  0  0  0  0  0  0  0
    0.0000    0.0000    0.0000 C   0  0  0  0  0  0  0  0  0  0  0  0
    0.0000    0.0000    0.0000 C   0  0  0  0  0  0  0  0  0  0  0  0
    0.0000    0.0000    0.0000 F   0  0  0  0  0  0  0  0  0  0  0  0
    0.0000    0.0000    0.0000 C   0  0  0  0  0  0  0  0  0  0  0  0
    0.0000    0.0000    0.0000 O   0  0  0  0  0  0  0  0  0  0  0  0
    0.0000    0.0000    0.0000 C   0  0  0  0  0  0  0  0  0  0  0  0
  1  2  1  0
  2  3  2  0
  3  4  1  0
  4  5  2  0
  5  6  1  0
  6  7  2  0
  7  8  1  0
  8  9  2  0
  9 10  1  0
 10 11  1  0
 11 12  1  0
 12 13  1  0
 13 14  1  0
 14 15  1  0
  8 16  1  0
 16 17  2  0
 17 18  1  0
 18 19  2  0
 19 20  1  0
 19 21  1  0
 21 22  1  0
 21 23  2  0
  7  2  1  0
 10  6  1  0
 15 11  1  0
 23 16  1  0
M  END
>  <pIC50>  (327) 
7.68

>  <ChEMBL_ID>  (327) 
CHEMBL1242748

>  <document_journal>  (327) 
Nat. Chem. Biol.

>  <bao_endpoint>  (327) 
BAO_0000190

>  <potential_duplicate>  (327) 
False

>  <uo_units>  (327) 
UO_0000065

>  <canonical_smiles>  (327) 
Nc1ncnc2c1c(nn2[C@H]3CCOC3)c4ccc(F)c(O)c4

>  <parent_molecule_chembl_id>  (327) 
CHEMBL1242748

>  <assay_type>  (327) 
B

>  <src_id>  (327) 
1

>  <ligand_efficiency>  (327) 
{u'le': u'0.46', u'bei': u'24.35', u'sei': u'7.75', u'lle': u'6.1'}

>  <standard_flag>  (327) 
True

>  <molecule_chembl_id>  (327) 
CHEMBL1242748

>  <target_organism>  (327) 
Homo sapiens

>  <standard_units>  (327) 
nM

>  <record_id>  (327) 
954090

>  <document_chembl_id>  (327) 
CHEMBL1240340

>  <bao_format>  (327) 
BAO_0000357

>  <data_validity_description>  (327) 
None

>  <activity_id>  (327) 
3440945

>  <standard_type>  (327) 
IC50

>  <target_chembl_id>  (327) 
CHEMBL1862

>  <data_validity_comment>  (327) 
None

>  <published_value>  (327) 
0.021

>  <document_year>  (327) 
2008

>  <target_pref_name>  (327) 
Tyrosine-protein kinase ABL

>  <assay_chembl_id>  (327) 
CHEMBL1243972

>  <standard_relation>  (327) 
=

>  <assay_description>  (327) 
Inhibition of recombinant c-Abl by radioactive phosphotransfer assay in presence of 10 uM ATP

>  <published_relation>  (327) 
=

>  <standard_value>  (327) 
21

>  <qudt_units>  (327) 
http://www.openphacts.org/units/Nanomolar

>  <target_tax_id>  (327) 
9606

>  <bao_label>  (327) 
single protein format

>  <published_units>  (327) 
uM

>  <pchembl_value>  (327) 
7.68

>  <published_type>  (327) 
IC50

>  <activity_comment>  (327) 
None

$$$$

     RDKit          

 23 26  0  0  0  0  0  0  0  0999 V2000
    0.0000    0.0000    0.0000 N   0  0  0  0  0  0  0  0  0  0  0  0
    0.0000    0.0000    0.0000 C   0  0  0  0  0  0  0  0  0  0  0  0
    0.0000    0.0000    0.0000 N   0  0  0  0  0  0  0  0  0  0  0  0
    0.0000    0.0000    0.0000 C   0  0  0  0  0  0  0  0  0  0  0  0
    0.0000    0.0000    0.0000 N   0  0  0  0  0  0  0  0  0  0  0  0
    0.0000    0.0000    0.0000 C   0  0  0  0  0  0  0  0  0  0  0  0
    0.0000    0.0000    0.0000 C   0  0  0  0  0  0  0  0  0  0  0  0
    0.0000    0.0000    0.0000 C   0  0  0  0  0  0  0  0  0  0  0  0
    0.0000    0.0000    0.0000 N   0  0  0  0  0  0  0  0  0  0  0  0
    0.0000    0.0000    0.0000 N   0  0  0  0  0  0  0  0  0  0  0  0
    0.0000    0.0000    0.0000 C   0  0  0  0  0  0  0  0  0  0  0  0
    0.0000    0.0000    0.0000 C   0  0  0  0  0  0  0  0  0  0  0  0
    0.0000    0.0000    0.0000 C   0  0  0  0  0  0  0  0  0  0  0  0
    0.0000    0.0000    0.0000 O   0  0  0  0  0  0  0  0  0  0  0  0
    0.0000    0.0000    0.0000 C   0  0  0  0  0  0  0  0  0  0  0  0
    0.0000    0.0000    0.0000 C   0  0  0  0  0  0  0  0  0  0  0  0
    0.0000    0.0000    0.0000 C   0  0  0  0  0  0  0  0  0  0  0  0
    0.0000    0.0000    0.0000 C   0  0  0  0  0  0  0  0  0  0  0  0
    0.0000    0.0000    0.0000 C   0  0  0  0  0  0  0  0  0  0  0  0
    0.0000    0.0000    0.0000 F   0  0  0  0  0  0  0  0  0  0  0  0
    0.0000    0.0000    0.0000 C   0  0  0  0  0  0  0  0  0  0  0  0
    0.0000    0.0000    0.0000 O   0  0  0  0  0  0  0  0  0  0  0  0
    0.0000    0.0000    0.0000 C   0  0  0  0  0  0  0  0  0  0  0  0
  1  2  1  0
  2  3  2  0
  3  4  1  0
  4  5  2  0
  5  6  1  0
  6  7  2  0
  7  8  1  0
  8  9  2  0
  9 10  1  0
 10 11  1  0
 11 12  1  0
 12 13  1  0
 13 14  1  0
 14 15  1  0
  8 16  1  0
 16 17  2  0
 17 18  1  0
 18 19  2  0
 19 20  1  0
 19 21  1  0
 21 22  1  0
 21 23  2  0
  7  2  1  0
 10  6  1  0
 15 11  1  0
 23 16  1  0
M  END
>  <pIC50>  (328) 
7.68

>  <ChEMBL_ID>  (328) 
CHEMBL1242749

>  <document_journal>  (328) 
Nat. Chem. Biol.

>  <bao_endpoint>  (328) 
BAO_0000190

>  <potential_duplicate>  (328) 
False

>  <uo_units>  (328) 
UO_0000065

>  <canonical_smiles>  (328) 
Nc1ncnc2c1c(nn2[C@@H]3CCOC3)c4ccc(F)c(O)c4

>  <parent_molecule_chembl_id>  (328) 
CHEMBL1242749

>  <assay_type>  (328) 
B

>  <src_id>  (328) 
1

>  <ligand_efficiency>  (328) 
{u'le': u'0.46', u'bei': u'24.35', u'sei': u'7.75', u'lle': u'6.1'}

>  <standard_flag>  (328) 
True

>  <molecule_chembl_id>  (328) 
CHEMBL1242749

>  <target_organism>  (328) 
Homo sapiens

>  <standard_units>  (328) 
nM

>  <record_id>  (328) 
954091

>  <document_chembl_id>  (328) 
CHEMBL1240340

>  <bao_format>  (328) 
BAO_0000357

>  <data_validity_description>  (328) 
None

>  <activity_id>  (328) 
3440959

>  <standard_type>  (328) 
IC50

>  <target_chembl_id>  (328) 
CHEMBL1862

>  <data_validity_comment>  (328) 
None

>  <published_value>  (328) 
0.021

>  <document_year>  (328) 
2008

>  <target_pref_name>  (328) 
Tyrosine-protein kinase ABL

>  <assay_chembl_id>  (328) 
CHEMBL1243972

>  <standard_relation>  (328) 
=

>  <assay_description>  (328) 
Inhibition of recombinant c-Abl by radioactive phosphotransfer assay in presence of 10 uM ATP

>  <published_relation>  (328) 
=

>  <standard_value>  (328) 
21

>  <qudt_units>  (328) 
http://www.openphacts.org/units/Nanomolar

>  <target_tax_id>  (328) 
9606

>  <bao_label>  (328) 
single protein format

>  <published_units>  (328) 
uM

>  <pchembl_value>  (328) 
7.68

>  <published_type>  (328) 
IC50

>  <activity_comment>  (328) 
None

$$$$

     RDKit          

 25 28  0  0  0  0  0  0  0  0999 V2000
    0.0000    0.0000    0.0000 N   0  0  0  0  0  0  0  0  0  0  0  0
    0.0000    0.0000    0.0000 C   0  0  0  0  0  0  0  0  0  0  0  0
    0.0000    0.0000    0.0000 N   0  0  0  0  0  0  0  0  0  0  0  0
    0.0000    0.0000    0.0000 C   0  0  0  0  0  0  0  0  0  0  0  0
    0.0000    0.0000    0.0000 N   0  0  0  0  0  0  0  0  0  0  0  0
    0.0000    0.0000    0.0000 C   0  0  0  0  0  0  0  0  0  0  0  0
    0.0000    0.0000    0.0000 C   0  0  0  0  0  0  0  0  0  0  0  0
    0.0000    0.0000    0.0000 C   0  0  0  0  0  0  0  0  0  0  0  0
    0.0000    0.0000    0.0000 N   0  0  0  0  0  0  0  0  0  0  0  0
    0.0000    0.0000    0.0000 N   0  0  0  0  0  0  0  0  0  0  0  0
    0.0000    0.0000    0.0000 C   0  0  0  0  0  0  0  0  0  0  0  0
    0.0000    0.0000    0.0000 C   0  0  0  0  0  0  0  0  0  0  0  0
    0.0000    0.0000    0.0000 C   0  0  0  0  0  0  0  0  0  0  0  0
    0.0000    0.0000    0.0000 C   0  0  0  0  0  0  0  0  0  0  0  0
    0.0000    0.0000    0.0000 C   0  0  0  0  0  0  0  0  0  0  0  0
    0.0000    0.0000    0.0000 C   0  0  0  0  0  0  0  0  0  0  0  0
    0.0000    0.0000    0.0000 C   0  0  0  0  0  0  0  0  0  0  0  0
    0.0000    0.0000    0.0000 C   0  0  0  0  0  0  0  0  0  0  0  0
    0.0000    0.0000    0.0000 C   0  0  0  0  0  0  0  0  0  0  0  0
    0.0000    0.0000    0.0000 C   0  0  0  0  0  0  0  0  0  0  0  0
    0.0000    0.0000    0.0000 C   0  0  0  0  0  0  0  0  0  0  0  0
    0.0000    0.0000    0.0000 F   0  0  0  0  0  0  0  0  0  0  0  0
    0.0000    0.0000    0.0000 C   0  0  0  0  0  0  0  0  0  0  0  0
    0.0000    0.0000    0.0000 O   0  0  0  0  0  0  0  0  0  0  0  0
    0.0000    0.0000    0.0000 C   0  0  0  0  0  0  0  0  0  0  0  0
  1  2  1  0
  2  3  2  0
  3  4  1  0
  4  5  2  0
  5  6  1  0
  6  7  2  0
  7  8  1  0
  8  9  2  0
  9 10  1  0
 10 11  1  0
 11 12  1  0
 12 13  1  0
 13 14  1  0
 14 15  1  0
 15 16  1  0
 16 17  1  0
  8 18  1  0
 18 19  2  0
 19 20  1  0
 20 21  2  0
 21 22  1  0
 21 23  1  0
 23 24  1  0
 23 25  2  0
  7  2  1  0
 10  6  1  0
 17 11  1  0
 25 18  1  0
M  END
>  <pIC50>  (329) 
7.17

>  <ChEMBL_ID>  (329) 
CHEMBL1242750

>  <document_journal>  (329) 
Nat. Chem. Biol.

>  <bao_endpoint>  (329) 
BAO_0000190

>  <potential_duplicate>  (329) 
False

>  <uo_units>  (329) 
UO_0000065

>  <canonical_smiles>  (329) 
Nc1ncnc2c1c(nn2C3CCCCCC3)c4ccc(F)c(O)c4

>  <parent_molecule_chembl_id>  (329) 
CHEMBL1242750

>  <assay_type>  (329) 
B

>  <src_id>  (329) 
1

>  <ligand_efficiency>  (329) 
{u'le': u'0.39', u'bei': u'21.01', u'sei': u'7.98', u'lle': u'3.05'}

>  <standard_flag>  (329) 
True

>  <molecule_chembl_id>  (329) 
CHEMBL1242750

>  <target_organism>  (329) 
Homo sapiens

>  <standard_units>  (329) 
nM

>  <record_id>  (329) 
954092

>  <document_chembl_id>  (329) 
CHEMBL1240340

>  <bao_format>  (329) 
BAO_0000357

>  <data_validity_description>  (329) 
None

>  <activity_id>  (329) 
3440973

>  <standard_type>  (329) 
IC50

>  <target_chembl_id>  (329) 
CHEMBL1862

>  <data_validity_comment>  (329) 
None

>  <published_value>  (329) 
0.067

>  <document_year>  (329) 
2008

>  <target_pref_name>  (329) 
Tyrosine-protein kinase ABL

>  <assay_chembl_id>  (329) 
CHEMBL1243972

>  <standard_relation>  (329) 
=

>  <assay_description>  (329) 
Inhibition of recombinant c-Abl by radioactive phosphotransfer assay in presence of 10 uM ATP

>  <published_relation>  (329) 
=

>  <standard_value>  (329) 
67

>  <qudt_units>  (329) 
http://www.openphacts.org/units/Nanomolar

>  <target_tax_id>  (329) 
9606

>  <bao_label>  (329) 
single protein format

>  <published_units>  (329) 
uM

>  <pchembl_value>  (329) 
7.17

>  <published_type>  (329) 
IC50

>  <activity_comment>  (329) 
None

$$$$

     RDKit          

 25 28  0  0  0  0  0  0  0  0999 V2000
    0.0000    0.0000    0.0000 N   0  0  0  0  0  0  0  0  0  0  0  0
    0.0000    0.0000    0.0000 C   0  0  0  0  0  0  0  0  0  0  0  0
    0.0000    0.0000    0.0000 N   0  0  0  0  0  0  0  0  0  0  0  0
    0.0000    0.0000    0.0000 C   0  0  0  0  0  0  0  0  0  0  0  0
    0.0000    0.0000    0.0000 N   0  0  0  0  0  0  0  0  0  0  0  0
    0.0000    0.0000    0.0000 C   0  0  0  0  0  0  0  0  0  0  0  0
    0.0000    0.0000    0.0000 C   0  0  0  0  0  0  0  0  0  0  0  0
    0.0000    0.0000    0.0000 C   0  0  0  0  0  0  0  0  0  0  0  0
    0.0000    0.0000    0.0000 N   0  0  0  0  0  0  0  0  0  0  0  0
    0.0000    0.0000    0.0000 N   0  0  0  0  0  0  0  0  0  0  0  0
    0.0000    0.0000    0.0000 C   0  0  0  0  0  0  0  0  0  0  0  0
    0.0000    0.0000    0.0000 C   0  0  0  0  0  0  0  0  0  0  0  0
    0.0000    0.0000    0.0000 C   0  0  0  0  0  0  0  0  0  0  0  0
    0.0000    0.0000    0.0000 C   0  0  0  0  0  0  0  0  0  0  0  0
    0.0000    0.0000    0.0000 N   0  0  0  0  0  0  0  0  0  0  0  0
    0.0000    0.0000    0.0000 C   0  0  0  0  0  0  0  0  0  0  0  0
    0.0000    0.0000    0.0000 C   0  0  0  0  0  0  0  0  0  0  0  0
    0.0000    0.0000    0.0000 C   0  0  0  0  0  0  0  0  0  0  0  0
    0.0000    0.0000    0.0000 C   0  0  0  0  0  0  0  0  0  0  0  0
    0.0000    0.0000    0.0000 C   0  0  0  0  0  0  0  0  0  0  0  0
    0.0000    0.0000    0.0000 C   0  0  0  0  0  0  0  0  0  0  0  0
    0.0000    0.0000    0.0000 F   0  0  0  0  0  0  0  0  0  0  0  0
    0.0000    0.0000    0.0000 C   0  0  0  0  0  0  0  0  0  0  0  0
    0.0000    0.0000    0.0000 O   0  0  0  0  0  0  0  0  0  0  0  0
    0.0000    0.0000    0.0000 C   0  0  0  0  0  0  0  0  0  0  0  0
  1  2  1  0
  2  3  2  0
  3  4  1  0
  4  5  2  0
  5  6  1  0
  6  7  2  0
  7  8  1  0
  8  9  2  0
  9 10  1  0
 10 11  1  0
 11 12  1  0
 12 13  1  0
 13 14  1  0
 14 15  1  0
 15 16  1  0
 16 17  1  0
  8 18  1  0
 18 19  2  0
 19 20  1  0
 20 21  2  0
 21 22  1  0
 21 23  1  0
 23 24  1  0
 23 25  2  0
  7  2  1  0
 10  6  1  0
 17 12  1  0
 25 18  1  0
M  END
>  <pIC50>  (330) 
5.23

>  <ChEMBL_ID>  (330) 
CHEMBL1242844

>  <document_journal>  (330) 
Nat. Chem. Biol.

>  <bao_endpoint>  (330) 
BAO_0000190

>  <potential_duplicate>  (330) 
False

>  <uo_units>  (330) 
UO_0000065

>  <canonical_smiles>  (330) 
Nc1ncnc2c1c(nn2CC3CCNCC3)c4ccc(F)c(O)c4

>  <parent_molecule_chembl_id>  (330) 
CHEMBL1242844

>  <assay_type>  (330) 
B

>  <src_id>  (330) 
1

>  <ligand_efficiency>  (330) 
{u'le': u'0.29', u'bei': u'15.29', u'sei': u'5.14', u'lle': u'3.27'}

>  <standard_flag>  (330) 
True

>  <molecule_chembl_id>  (330) 
CHEMBL1242844

>  <target_organism>  (330) 
Homo sapiens

>  <standard_units>  (330) 
nM

>  <record_id>  (330) 
954223

>  <document_chembl_id>  (330) 
CHEMBL1240340

>  <bao_format>  (330) 
BAO_0000357

>  <data_validity_description>  (330) 
None

>  <activity_id>  (330) 
3440987

>  <standard_type>  (330) 
IC50

>  <target_chembl_id>  (330) 
CHEMBL1862

>  <data_validity_comment>  (330) 
None

>  <published_value>  (330) 
5.842

>  <document_year>  (330) 
2008

>  <target_pref_name>  (330) 
Tyrosine-protein kinase ABL

>  <assay_chembl_id>  (330) 
CHEMBL1243972

>  <standard_relation>  (330) 
=

>  <assay_description>  (330) 
Inhibition of recombinant c-Abl by radioactive phosphotransfer assay in presence of 10 uM ATP

>  <published_relation>  (330) 
=

>  <standard_value>  (330) 
5842

>  <qudt_units>  (330) 
http://www.openphacts.org/units/Nanomolar

>  <target_tax_id>  (330) 
9606

>  <bao_label>  (330) 
single protein format

>  <published_units>  (330) 
uM

>  <pchembl_value>  (330) 
5.23

>  <published_type>  (330) 
IC50

>  <activity_comment>  (330) 
None

$$$$

     RDKit          

 31 35  0  0  0  0  0  0  0  0999 V2000
    0.0000    0.0000    0.0000 C   0  0  0  0  0  0  0  0  0  0  0  0
    0.0000    0.0000    0.0000 C   0  0  0  0  0  0  0  0  0  0  0  0
    0.0000    0.0000    0.0000 N   0  0  0  0  0  0  0  0  0  0  0  0
    0.0000    0.0000    0.0000 N   0  0  0  0  0  0  0  0  0  0  0  0
    0.0000    0.0000    0.0000 N   0  0  0  0  0  0  0  0  0  0  0  0
    0.0000    0.0000    0.0000 C   0  0  0  0  0  0  0  0  0  0  0  0
    0.0000    0.0000    0.0000 C   0  0  0  0  0  0  0  0  0  0  0  0
    0.0000    0.0000    0.0000 N   0  0  0  0  0  0  0  0  0  0  0  0
    0.0000    0.0000    0.0000 N   0  0  0  0  0  0  0  0  0  0  0  0
    0.0000    0.0000    0.0000 C   0  0  0  0  0  0  0  0  0  0  0  0
    0.0000    0.0000    0.0000 C   0  0  0  0  0  0  0  0  0  0  0  0
    0.0000    0.0000    0.0000 C   0  0  0  0  0  0  0  0  0  0  0  0
    0.0000    0.0000    0.0000 C   0  0  0  0  0  0  0  0  0  0  0  0
    0.0000    0.0000    0.0000 C   0  0  0  0  0  0  0  0  0  0  0  0
    0.0000    0.0000    0.0000 F   0  0  0  0  0  0  0  0  0  0  0  0
    0.0000    0.0000    0.0000 C   0  0  0  0  0  0  0  0  0  0  0  0
    0.0000    0.0000    0.0000 O   0  0  0  0  0  0  0  0  0  0  0  0
    0.0000    0.0000    0.0000 C   0  0  0  0  0  0  0  0  0  0  0  0
    0.0000    0.0000    0.0000 C   0  0  0  0  0  0  0  0  0  0  0  0
    0.0000    0.0000    0.0000 C   0  0  0  0  0  0  0  0  0  0  0  0
    0.0000    0.0000    0.0000 N   0  0  0  0  0  0  0  0  0  0  0  0
    0.0000    0.0000    0.0000 N   0  0  0  0  0  0  0  0  0  0  0  0
    0.0000    0.0000    0.0000 C   0  0  0  0  0  0  0  0  0  0  0  0
    0.0000    0.0000    0.0000 N   0  0  0  0  0  0  0  0  0  0  0  0
    0.0000    0.0000    0.0000 C   0  0  0  0  0  0  0  0  0  0  0  0
    0.0000    0.0000    0.0000 C   0  0  0  0  0  0  0  0  0  0  0  0
    0.0000    0.0000    0.0000 C   0  0  0  0  0  0  0  0  0  0  0  0
    0.0000    0.0000    0.0000 C   0  0  0  0  0  0  0  0  0  0  0  0
    0.0000    0.0000    0.0000 C   0  0  0  0  0  0  0  0  0  0  0  0
    0.0000    0.0000    0.0000 C   0  0  0  0  0  0  0  0  0  0  0  0
    0.0000    0.0000    0.0000 C   0  0  0  0  0  0  0  0  0  0  0  0
  1  2  1  0
  2  3  2  0
  3  4  1  0
  4  5  1  0
  5  6  2  0
  6  7  1  0
  7  8  1  0
  8  9  1  0
  9 10  2  0
 10 11  1  0
 11 12  2  0
 12 13  1  0
 13 14  2  0
 14 15  1  0
 14 16  1  0
 16 17  1  0
 16 18  2  0
 10 19  1  0
 19 20  2  0
 20 21  1  0
 20 22  1  0
 22 23  2  0
 23 24  1  0
 24 25  2  0
  4 26  1  0
 26 27  2  0
 27 28  1  0
 28 29  2  0
 29 30  1  0
 30 31  2  0
  6  2  1  0
 25  8  1  0
 18 11  1  0
 25 19  1  0
 31 26  1  0
M  END
>  <pIC50>  (331) 
6.41

>  <ChEMBL_ID>  (331) 
CHEMBL1242845

>  <document_journal>  (331) 
Nat. Chem. Biol.

>  <bao_endpoint>  (331) 
BAO_0000190

>  <potential_duplicate>  (331) 
False

>  <uo_units>  (331) 
UO_0000065

>  <canonical_smiles>  (331) 
Cc1nn(nc1Cn2nc(c3ccc(F)c(O)c3)c4c(N)ncnc24)c5ccccc5

>  <parent_molecule_chembl_id>  (331) 
CHEMBL1242845

>  <assay_type>  (331) 
B

>  <src_id>  (331) 
1

>  <ligand_efficiency>  (331) 
{u'le': u'0.28', u'bei': u'15.38', u'sei': u'5.31', u'lle': u'2.95'}

>  <standard_flag>  (331) 
True

>  <molecule_chembl_id>  (331) 
CHEMBL1242845

>  <target_organism>  (331) 
Homo sapiens

>  <standard_units>  (331) 
nM

>  <record_id>  (331) 
954224

>  <document_chembl_id>  (331) 
CHEMBL1240340

>  <bao_format>  (331) 
BAO_0000357

>  <data_validity_description>  (331) 
None

>  <activity_id>  (331) 
3441001

>  <standard_type>  (331) 
IC50

>  <target_chembl_id>  (331) 
CHEMBL1862

>  <data_validity_comment>  (331) 
None

>  <published_value>  (331) 
0.393

>  <document_year>  (331) 
2008

>  <target_pref_name>  (331) 
Tyrosine-protein kinase ABL

>  <assay_chembl_id>  (331) 
CHEMBL1243972

>  <standard_relation>  (331) 
=

>  <assay_description>  (331) 
Inhibition of recombinant c-Abl by radioactive phosphotransfer assay in presence of 10 uM ATP

>  <published_relation>  (331) 
=

>  <standard_value>  (331) 
393

>  <qudt_units>  (331) 
http://www.openphacts.org/units/Nanomolar

>  <target_tax_id>  (331) 
9606

>  <bao_label>  (331) 
single protein format

>  <published_units>  (331) 
uM

>  <pchembl_value>  (331) 
6.41

>  <published_type>  (331) 
IC50

>  <activity_comment>  (331) 
None

$$$$

     RDKit          

 30 34  0  0  0  0  0  0  0  0999 V2000
    0.0000    0.0000    0.0000 N   0  0  0  0  0  0  0  0  0  0  0  0
    0.0000    0.0000    0.0000 C   0  0  0  0  0  0  0  0  0  0  0  0
    0.0000    0.0000    0.0000 N   0  0  0  0  0  0  0  0  0  0  0  0
    0.0000    0.0000    0.0000 C   0  0  0  0  0  0  0  0  0  0  0  0
    0.0000    0.0000    0.0000 N   0  0  0  0  0  0  0  0  0  0  0  0
    0.0000    0.0000    0.0000 C   0  0  0  0  0  0  0  0  0  0  0  0
    0.0000    0.0000    0.0000 C   0  0  0  0  0  0  0  0  0  0  0  0
    0.0000    0.0000    0.0000 C   0  0  0  0  0  0  0  0  0  0  0  0
    0.0000    0.0000    0.0000 N   0  0  0  0  0  0  0  0  0  0  0  0
    0.0000    0.0000    0.0000 N   0  0  0  0  0  0  0  0  0  0  0  0
    0.0000    0.0000    0.0000 C   0  0  0  0  0  0  0  0  0  0  0  0
    0.0000    0.0000    0.0000 C   0  0  0  0  0  0  0  0  0  0  0  0
    0.0000    0.0000    0.0000 O   0  0  0  0  0  0  0  0  0  0  0  0
    0.0000    0.0000    0.0000 C   0  0  0  0  0  0  0  0  0  0  0  0
    0.0000    0.0000    0.0000 N   0  0  0  0  0  0  0  0  0  0  0  0
    0.0000    0.0000    0.0000 C   0  0  0  0  0  0  0  0  0  0  0  0
    0.0000    0.0000    0.0000 C   0  0  0  0  0  0  0  0  0  0  0  0
    0.0000    0.0000    0.0000 C   0  0  0  0  0  0  0  0  0  0  0  0
    0.0000    0.0000    0.0000 C   0  0  0  0  0  0  0  0  0  0  0  0
    0.0000    0.0000    0.0000 C   0  0  0  0  0  0  0  0  0  0  0  0
    0.0000    0.0000    0.0000 C   0  0  0  0  0  0  0  0  0  0  0  0
    0.0000    0.0000    0.0000 C   0  0  0  0  0  0  0  0  0  0  0  0
    0.0000    0.0000    0.0000 C   0  0  0  0  0  0  0  0  0  0  0  0
    0.0000    0.0000    0.0000 C   0  0  0  0  0  0  0  0  0  0  0  0
    0.0000    0.0000    0.0000 C   0  0  0  0  0  0  0  0  0  0  0  0
    0.0000    0.0000    0.0000 C   0  0  0  0  0  0  0  0  0  0  0  0
    0.0000    0.0000    0.0000 F   0  0  0  0  0  0  0  0  0  0  0  0
    0.0000    0.0000    0.0000 C   0  0  0  0  0  0  0  0  0  0  0  0
    0.0000    0.0000    0.0000 O   0  0  0  0  0  0  0  0  0  0  0  0
    0.0000    0.0000    0.0000 C   0  0  0  0  0  0  0  0  0  0  0  0
  1  2  1  0
  2  3  2  0
  3  4  1  0
  4  5  2  0
  5  6  1  0
  6  7  2  0
  7  8  1  0
  8  9  2  0
  9 10  1  0
 10 11  1  0
 11 12  1  0
 12 13  1  0
 13 14  1  0
 14 15  2  0
 15 16  1  0
 16 17  1  0
 17 18  2  0
 18 19  1  0
 19 20  2  0
 20 21  1  0
 21 22  2  0
  8 23  1  0
 23 24  2  0
 24 25  1  0
 25 26  2  0
 26 27  1  0
 26 28  1  0
 28 29  1  0
 28 30  2  0
  7  2  1  0
 10  6  1  0
 16 12  2  0
 22 17  1  0
 30 23  1  0
M  END
>  <pIC50>  (332) 
6.25

>  <ChEMBL_ID>  (332) 
CHEMBL1241482

>  <document_journal>  (332) 
Nat. Chem. Biol.

>  <bao_endpoint>  (332) 
BAO_0000190

>  <potential_duplicate>  (332) 
False

>  <uo_units>  (332) 
UO_0000065

>  <canonical_smiles>  (332) 
Nc1ncnc2c1c(nn2Cc3ocnc3c4ccccc4)c5ccc(F)c(O)c5

>  <parent_molecule_chembl_id>  (332) 
CHEMBL1241482

>  <assay_type>  (332) 
B

>  <src_id>  (332) 
1

>  <ligand_efficiency>  (332) 
{u'le': u'0.28', u'bei': u'15.53', u'sei': u'5.39', u'lle': u'2.94'}

>  <standard_flag>  (332) 
True

>  <molecule_chembl_id>  (332) 
CHEMBL1241482

>  <target_organism>  (332) 
Homo sapiens

>  <standard_units>  (332) 
nM

>  <record_id>  (332) 
952246

>  <document_chembl_id>  (332) 
CHEMBL1240340

>  <bao_format>  (332) 
BAO_0000357

>  <data_validity_description>  (332) 
None

>  <activity_id>  (332) 
3441015

>  <standard_type>  (332) 
IC50

>  <target_chembl_id>  (332) 
CHEMBL1862

>  <data_validity_comment>  (332) 
None

>  <published_value>  (332) 
0.565

>  <document_year>  (332) 
2008

>  <target_pref_name>  (332) 
Tyrosine-protein kinase ABL

>  <assay_chembl_id>  (332) 
CHEMBL1243972

>  <standard_relation>  (332) 
=

>  <assay_description>  (332) 
Inhibition of recombinant c-Abl by radioactive phosphotransfer assay in presence of 10 uM ATP

>  <published_relation>  (332) 
=

>  <standard_value>  (332) 
565

>  <qudt_units>  (332) 
http://www.openphacts.org/units/Nanomolar

>  <target_tax_id>  (332) 
9606

>  <bao_label>  (332) 
single protein format

>  <published_units>  (332) 
uM

>  <pchembl_value>  (332) 
6.25

>  <published_type>  (332) 
IC50

>  <activity_comment>  (332) 
None

$$$$

     RDKit          

 22 24  0  0  0  0  0  0  0  0999 V2000
    0.0000    0.0000    0.0000 C   0  0  0  0  0  0  0  0  0  0  0  0
    0.0000    0.0000    0.0000 O   0  0  0  0  0  0  0  0  0  0  0  0
    0.0000    0.0000    0.0000 C   0  0  0  0  0  0  0  0  0  0  0  0
    0.0000    0.0000    0.0000 C   0  0  0  0  0  0  0  0  0  0  0  0
    0.0000    0.0000    0.0000 C   0  0  0  0  0  0  0  0  0  0  0  0
    0.0000    0.0000    0.0000 C   0  0  0  0  0  0  0  0  0  0  0  0
    0.0000    0.0000    0.0000 C   0  0  0  0  0  0  0  0  0  0  0  0
    0.0000    0.0000    0.0000 C   0  0  0  0  0  0  0  0  0  0  0  0
    0.0000    0.0000    0.0000 F   0  0  0  0  0  0  0  0  0  0  0  0
    0.0000    0.0000    0.0000 C   0  0  0  0  0  0  0  0  0  0  0  0
    0.0000    0.0000    0.0000 N   0  0  0  0  0  0  0  0  0  0  0  0
    0.0000    0.0000    0.0000 N   0  0  0  0  0  0  0  0  0  0  0  0
    0.0000    0.0000    0.0000 C   0  0  0  0  0  0  0  0  0  0  0  0
    0.0000    0.0000    0.0000 C   0  0  0  0  0  0  0  0  0  0  0  0
    0.0000    0.0000    0.0000 C   0  0  0  0  0  0  0  0  0  0  0  0
    0.0000    0.0000    0.0000 C   0  0  0  0  0  0  0  0  0  0  0  0
    0.0000    0.0000    0.0000 N   0  0  0  0  0  0  0  0  0  0  0  0
    0.0000    0.0000    0.0000 C   0  0  0  0  0  0  0  0  0  0  0  0
    0.0000    0.0000    0.0000 N   0  0  0  0  0  0  0  0  0  0  0  0
    0.0000    0.0000    0.0000 C   0  0  0  0  0  0  0  0  0  0  0  0
    0.0000    0.0000    0.0000 N   0  0  0  0  0  0  0  0  0  0  0  0
    0.0000    0.0000    0.0000 C   0  0  0  0  0  0  0  0  0  0  0  0
  1  2  1  0
  2  3  1  0
  3  4  2  0
  4  5  1  0
  5  6  2  0
  6  7  1  0
  7  8  2  0
  8  9  1  0
  5 10  1  0
 10 11  2  0
 11 12  1  0
 12 13  1  0
 13 14  1  0
 13 15  1  0
 12 16  1  0
 16 17  2  0
 17 18  1  0
 18 19  2  0
 19 20  1  0
 20 21  1  0
 20 22  2  0
  8  3  1  0
 22 10  1  0
 22 16  1  0
M  END
>  <pIC50>  (333) 
6.25

>  <ChEMBL_ID>  (333) 
CHEMBL1241483

>  <document_journal>  (333) 
Nat. Chem. Biol.

>  <bao_endpoint>  (333) 
BAO_0000190

>  <potential_duplicate>  (333) 
False

>  <uo_units>  (333) 
UO_0000065

>  <canonical_smiles>  (333) 
COc1cc(ccc1F)c2nn(C(C)C)c3ncnc(N)c23

>  <parent_molecule_chembl_id>  (333) 
CHEMBL1241483

>  <assay_type>  (333) 
B

>  <src_id>  (333) 
1

>  <ligand_efficiency>  (333) 
{u'le': u'0.39', u'bei': u'20.75', u'sei': u'7.93', u'lle': u'3.5'}

>  <standard_flag>  (333) 
True

>  <molecule_chembl_id>  (333) 
CHEMBL1241483

>  <target_organism>  (333) 
Homo sapiens

>  <standard_units>  (333) 
nM

>  <record_id>  (333) 
952247

>  <document_chembl_id>  (333) 
CHEMBL1240340

>  <bao_format>  (333) 
BAO_0000357

>  <data_validity_description>  (333) 
None

>  <activity_id>  (333) 
3441029

>  <standard_type>  (333) 
IC50

>  <target_chembl_id>  (333) 
CHEMBL1862

>  <data_validity_comment>  (333) 
None

>  <published_value>  (333) 
0.558

>  <document_year>  (333) 
2008

>  <target_pref_name>  (333) 
Tyrosine-protein kinase ABL

>  <assay_chembl_id>  (333) 
CHEMBL1243972

>  <standard_relation>  (333) 
=

>  <assay_description>  (333) 
Inhibition of recombinant c-Abl by radioactive phosphotransfer assay in presence of 10 uM ATP

>  <published_relation>  (333) 
=

>  <standard_value>  (333) 
558

>  <qudt_units>  (333) 
http://www.openphacts.org/units/Nanomolar

>  <target_tax_id>  (333) 
9606

>  <bao_label>  (333) 
single protein format

>  <published_units>  (333) 
uM

>  <pchembl_value>  (333) 
6.25

>  <published_type>  (333) 
IC50

>  <activity_comment>  (333) 
None

$$$$

     RDKit          

 21 23  0  0  0  0  0  0  0  0999 V2000
    0.0000    0.0000    0.0000 C   0  0  0  0  0  0  0  0  0  0  0  0
    0.0000    0.0000    0.0000 C   0  0  0  0  0  0  0  0  0  0  0  0
    0.0000    0.0000    0.0000 C   0  0  0  0  0  0  0  0  0  0  0  0
    0.0000    0.0000    0.0000 N   0  0  0  0  0  0  0  0  0  0  0  0
    0.0000    0.0000    0.0000 N   0  0  0  0  0  0  0  0  0  0  0  0
    0.0000    0.0000    0.0000 C   0  0  0  0  0  0  0  0  0  0  0  0
    0.0000    0.0000    0.0000 C   0  0  0  0  0  0  0  0  0  0  0  0
    0.0000    0.0000    0.0000 C   0  0  0  0  0  0  0  0  0  0  0  0
    0.0000    0.0000    0.0000 C   0  0  0  0  0  0  0  0  0  0  0  0
    0.0000    0.0000    0.0000 C   0  0  0  0  0  0  0  0  0  0  0  0
    0.0000    0.0000    0.0000 Cl  0  0  0  0  0  0  0  0  0  0  0  0
    0.0000    0.0000    0.0000 C   0  0  0  0  0  0  0  0  0  0  0  0
    0.0000    0.0000    0.0000 O   0  0  0  0  0  0  0  0  0  0  0  0
    0.0000    0.0000    0.0000 C   0  0  0  0  0  0  0  0  0  0  0  0
    0.0000    0.0000    0.0000 C   0  0  0  0  0  0  0  0  0  0  0  0
    0.0000    0.0000    0.0000 C   0  0  0  0  0  0  0  0  0  0  0  0
    0.0000    0.0000    0.0000 N   0  0  0  0  0  0  0  0  0  0  0  0
    0.0000    0.0000    0.0000 N   0  0  0  0  0  0  0  0  0  0  0  0
    0.0000    0.0000    0.0000 C   0  0  0  0  0  0  0  0  0  0  0  0
    0.0000    0.0000    0.0000 N   0  0  0  0  0  0  0  0  0  0  0  0
    0.0000    0.0000    0.0000 C   0  0  0  0  0  0  0  0  0  0  0  0
  1  2  1  0
  2  3  1  0
  2  4  1  0
  4  5  1  0
  5  6  2  0
  6  7  1  0
  7  8  2  0
  8  9  1  0
  9 10  2  0
 10 11  1  0
 10 12  1  0
 12 13  1  0
 12 14  2  0
  6 15  1  0
 15 16  2  0
 16 17  1  0
 16 18  1  0
 18 19  2  0
 19 20  1  0
 20 21  2  0
 21  4  1  0
 14  7  1  0
 21 15  1  0
M  END
>  <pIC50>  (334) 
8.26

>  <ChEMBL_ID>  (334) 
CHEMBL1241484

>  <document_journal>  (334) 
Nat. Chem. Biol.

>  <bao_endpoint>  (334) 
BAO_0000190

>  <potential_duplicate>  (334) 
False

>  <uo_units>  (334) 
UO_0000065

>  <canonical_smiles>  (334) 
CC(C)n1nc(c2ccc(Cl)c(O)c2)c3c(N)ncnc13

>  <parent_molecule_chembl_id>  (334) 
CHEMBL1241484

>  <assay_type>  (334) 
B

>  <src_id>  (334) 
1

>  <ligand_efficiency>  (334) 
{u'le': u'0.54', u'bei': u'27.19', u'sei': u'9.19', u'lle': u'5.27'}

>  <standard_flag>  (334) 
True

>  <molecule_chembl_id>  (334) 
CHEMBL1241484

>  <target_organism>  (334) 
Homo sapiens

>  <standard_units>  (334) 
nM

>  <record_id>  (334) 
952248

>  <document_chembl_id>  (334) 
CHEMBL1240340

>  <bao_format>  (334) 
BAO_0000357

>  <data_validity_description>  (334) 
None

>  <activity_id>  (334) 
3441043

>  <standard_type>  (334) 
IC50

>  <target_chembl_id>  (334) 
CHEMBL1862

>  <data_validity_comment>  (334) 
None

>  <published_value>  (334) 
0.0055

>  <document_year>  (334) 
2008

>  <target_pref_name>  (334) 
Tyrosine-protein kinase ABL

>  <assay_chembl_id>  (334) 
CHEMBL1243972

>  <standard_relation>  (334) 
=

>  <assay_description>  (334) 
Inhibition of recombinant c-Abl by radioactive phosphotransfer assay in presence of 10 uM ATP

>  <published_relation>  (334) 
=

>  <standard_value>  (334) 
5.5

>  <qudt_units>  (334) 
http://www.openphacts.org/units/Nanomolar

>  <target_tax_id>  (334) 
9606

>  <bao_label>  (334) 
single protein format

>  <published_units>  (334) 
uM

>  <pchembl_value>  (334) 
8.26

>  <published_type>  (334) 
IC50

>  <activity_comment>  (334) 
None

$$$$

     RDKit          

 22 24  0  0  0  0  0  0  0  0999 V2000
    0.0000    0.0000    0.0000 C   0  0  0  0  0  0  0  0  0  0  0  0
    0.0000    0.0000    0.0000 C   0  0  0  0  0  0  0  0  0  0  0  0
    0.0000    0.0000    0.0000 C   0  0  0  0  0  0  0  0  0  0  0  0
    0.0000    0.0000    0.0000 N   0  0  0  0  0  0  0  0  0  0  0  0
    0.0000    0.0000    0.0000 N   0  0  0  0  0  0  0  0  0  0  0  0
    0.0000    0.0000    0.0000 N   0  0  0  0  0  0  0  0  0  0  0  0
    0.0000    0.0000    0.0000 C   0  0  0  0  0  0  0  0  0  0  0  0
    0.0000    0.0000    0.0000 C   0  0  0  0  0  0  0  0  0  0  0  0
    0.0000    0.0000    0.0000 C   0  0  0  0  0  0  0  0  0  0  0  0
    0.0000    0.0000    0.0000 C   0  0  0  0  0  0  0  0  0  0  0  0
    0.0000    0.0000    0.0000 C   0  0  0  0  0  0  0  0  0  0  0  0
    0.0000    0.0000    0.0000 Cl  0  0  0  0  0  0  0  0  0  0  0  0
    0.0000    0.0000    0.0000 C   0  0  0  0  0  0  0  0  0  0  0  0
    0.0000    0.0000    0.0000 O   0  0  0  0  0  0  0  0  0  0  0  0
    0.0000    0.0000    0.0000 C   0  0  0  0  0  0  0  0  0  0  0  0
    0.0000    0.0000    0.0000 C   0  0  0  0  0  0  0  0  0  0  0  0
    0.0000    0.0000    0.0000 C   0  0  0  0  0  0  0  0  0  0  0  0
    0.0000    0.0000    0.0000 N   0  0  0  0  0  0  0  0  0  0  0  0
    0.0000    0.0000    0.0000 N   0  0  0  0  0  0  0  0  0  0  0  0
    0.0000    0.0000    0.0000 C   0  0  0  0  0  0  0  0  0  0  0  0
    0.0000    0.0000    0.0000 N   0  0  0  0  0  0  0  0  0  0  0  0
    0.0000    0.0000    0.0000 C   0  0  0  0  0  0  0  0  0  0  0  0
  1  2  1  0
  2  3  1  0
  3  4  1  0
  2  5  1  0
  5  6  1  0
  6  7  2  0
  7  8  1  0
  8  9  2  0
  9 10  1  0
 10 11  2  0
 11 12  1  0
 11 13  1  0
 13 14  1  0
 13 15  2  0
  7 16  1  0
 16 17  2  0
 17 18  1  0
 17 19  1  0
 19 20  2  0
 20 21  1  0
 21 22  2  0
 22  5  1  0
 15  8  1  0
 22 16  1  0
M  END
>  <pIC50>  (335) 
6.89

>  <ChEMBL_ID>  (335) 
CHEMBL1241579

>  <document_journal>  (335) 
Nat. Chem. Biol.

>  <bao_endpoint>  (335) 
BAO_0000190

>  <potential_duplicate>  (335) 
False

>  <uo_units>  (335) 
UO_0000065

>  <canonical_smiles>  (335) 
C[C@H](CN)n1nc(c2ccc(Cl)c(O)c2)c3c(N)ncnc13

>  <parent_molecule_chembl_id>  (335) 
CHEMBL1241579

>  <assay_type>  (335) 
B

>  <src_id>  (335) 
1

>  <ligand_efficiency>  (335) 
{u'le': u'0.43', u'bei': u'21.6', u'sei': u'5.94', u'lle': u'5.08'}

>  <standard_flag>  (335) 
True

>  <molecule_chembl_id>  (335) 
CHEMBL1241579

>  <target_organism>  (335) 
Homo sapiens

>  <standard_units>  (335) 
nM

>  <record_id>  (335) 
952384

>  <document_chembl_id>  (335) 
CHEMBL1240340

>  <bao_format>  (335) 
BAO_0000357

>  <data_validity_description>  (335) 
None

>  <activity_id>  (335) 
3441057

>  <standard_type>  (335) 
IC50

>  <target_chembl_id>  (335) 
CHEMBL1862

>  <data_validity_comment>  (335) 
None

>  <published_value>  (335) 
0.13

>  <document_year>  (335) 
2008

>  <target_pref_name>  (335) 
Tyrosine-protein kinase ABL

>  <assay_chembl_id>  (335) 
CHEMBL1243972

>  <standard_relation>  (335) 
=

>  <assay_description>  (335) 
Inhibition of recombinant c-Abl by radioactive phosphotransfer assay in presence of 10 uM ATP

>  <published_relation>  (335) 
=

>  <standard_value>  (335) 
130

>  <qudt_units>  (335) 
http://www.openphacts.org/units/Nanomolar

>  <target_tax_id>  (335) 
9606

>  <bao_label>  (335) 
single protein format

>  <published_units>  (335) 
uM

>  <pchembl_value>  (335) 
6.89

>  <published_type>  (335) 
IC50

>  <activity_comment>  (335) 
None

$$$$

     RDKit          

 22 24  0  0  0  0  0  0  0  0999 V2000
    0.0000    0.0000    0.0000 C   0  0  0  0  0  0  0  0  0  0  0  0
    0.0000    0.0000    0.0000 C   0  0  0  0  0  0  0  0  0  0  0  0
    0.0000    0.0000    0.0000 C   0  0  0  0  0  0  0  0  0  0  0  0
    0.0000    0.0000    0.0000 N   0  0  0  0  0  0  0  0  0  0  0  0
    0.0000    0.0000    0.0000 N   0  0  0  0  0  0  0  0  0  0  0  0
    0.0000    0.0000    0.0000 N   0  0  0  0  0  0  0  0  0  0  0  0
    0.0000    0.0000    0.0000 C   0  0  0  0  0  0  0  0  0  0  0  0
    0.0000    0.0000    0.0000 C   0  0  0  0  0  0  0  0  0  0  0  0
    0.0000    0.0000    0.0000 C   0  0  0  0  0  0  0  0  0  0  0  0
    0.0000    0.0000    0.0000 C   0  0  0  0  0  0  0  0  0  0  0  0
    0.0000    0.0000    0.0000 C   0  0  0  0  0  0  0  0  0  0  0  0
    0.0000    0.0000    0.0000 Cl  0  0  0  0  0  0  0  0  0  0  0  0
    0.0000    0.0000    0.0000 C   0  0  0  0  0  0  0  0  0  0  0  0
    0.0000    0.0000    0.0000 O   0  0  0  0  0  0  0  0  0  0  0  0
    0.0000    0.0000    0.0000 C   0  0  0  0  0  0  0  0  0  0  0  0
    0.0000    0.0000    0.0000 C   0  0  0  0  0  0  0  0  0  0  0  0
    0.0000    0.0000    0.0000 C   0  0  0  0  0  0  0  0  0  0  0  0
    0.0000    0.0000    0.0000 N   0  0  0  0  0  0  0  0  0  0  0  0
    0.0000    0.0000    0.0000 N   0  0  0  0  0  0  0  0  0  0  0  0
    0.0000    0.0000    0.0000 C   0  0  0  0  0  0  0  0  0  0  0  0
    0.0000    0.0000    0.0000 N   0  0  0  0  0  0  0  0  0  0  0  0
    0.0000    0.0000    0.0000 C   0  0  0  0  0  0  0  0  0  0  0  0
  1  2  1  0
  2  3  1  0
  3  4  1  0
  2  5  1  0
  5  6  1  0
  6  7  2  0
  7  8  1  0
  8  9  2  0
  9 10  1  0
 10 11  2  0
 11 12  1  0
 11 13  1  0
 13 14  1  0
 13 15  2  0
  7 16  1  0
 16 17  2  0
 17 18  1  0
 17 19  1  0
 19 20  2  0
 20 21  1  0
 21 22  2  0
 22  5  1  0
 15  8  1  0
 22 16  1  0
M  END
>  <pIC50>  (336) 
6.16

>  <ChEMBL_ID>  (336) 
CHEMBL1240544

>  <document_journal>  (336) 
Nat. Chem. Biol.

>  <bao_endpoint>  (336) 
BAO_0000190

>  <potential_duplicate>  (336) 
False

>  <uo_units>  (336) 
UO_0000065

>  <canonical_smiles>  (336) 
C[C@@H](CN)n1nc(c2ccc(Cl)c(O)c2)c3c(N)ncnc13

>  <parent_molecule_chembl_id>  (336) 
CHEMBL1240544

>  <assay_type>  (336) 
B

>  <src_id>  (336) 
1

>  <ligand_efficiency>  (336) 
{u'le': u'0.38', u'bei': u'19.32', u'sei': u'5.31', u'lle': u'4.35'}

>  <standard_flag>  (336) 
True

>  <molecule_chembl_id>  (336) 
CHEMBL1240544

>  <target_organism>  (336) 
Homo sapiens

>  <standard_units>  (336) 
nM

>  <record_id>  (336) 
952385

>  <document_chembl_id>  (336) 
CHEMBL1240340

>  <bao_format>  (336) 
BAO_0000357

>  <data_validity_description>  (336) 
None

>  <activity_id>  (336) 
3441071

>  <standard_type>  (336) 
IC50

>  <target_chembl_id>  (336) 
CHEMBL1862

>  <data_validity_comment>  (336) 
None

>  <published_value>  (336) 
0.695

>  <document_year>  (336) 
2008

>  <target_pref_name>  (336) 
Tyrosine-protein kinase ABL

>  <assay_chembl_id>  (336) 
CHEMBL1243972

>  <standard_relation>  (336) 
=

>  <assay_description>  (336) 
Inhibition of recombinant c-Abl by radioactive phosphotransfer assay in presence of 10 uM ATP

>  <published_relation>  (336) 
=

>  <standard_value>  (336) 
695

>  <qudt_units>  (336) 
http://www.openphacts.org/units/Nanomolar

>  <target_tax_id>  (336) 
9606

>  <bao_label>  (336) 
single protein format

>  <published_units>  (336) 
uM

>  <pchembl_value>  (336) 
6.16

>  <published_type>  (336) 
IC50

>  <activity_comment>  (336) 
None

$$$$

     RDKit          

 22 25  0  0  0  0  0  0  0  0999 V2000
    0.0000    0.0000    0.0000 N   0  0  0  0  0  0  0  0  0  0  0  0
    0.0000    0.0000    0.0000 C   0  0  0  0  0  0  0  0  0  0  0  0
    0.0000    0.0000    0.0000 N   0  0  0  0  0  0  0  0  0  0  0  0
    0.0000    0.0000    0.0000 C   0  0  0  0  0  0  0  0  0  0  0  0
    0.0000    0.0000    0.0000 N   0  0  0  0  0  0  0  0  0  0  0  0
    0.0000    0.0000    0.0000 C   0  0  0  0  0  0  0  0  0  0  0  0
    0.0000    0.0000    0.0000 C   0  0  0  0  0  0  0  0  0  0  0  0
    0.0000    0.0000    0.0000 C   0  0  0  0  0  0  0  0  0  0  0  0
    0.0000    0.0000    0.0000 N   0  0  0  0  0  0  0  0  0  0  0  0
    0.0000    0.0000    0.0000 N   0  0  0  0  0  0  0  0  0  0  0  0
    0.0000    0.0000    0.0000 C   0  0  0  0  0  0  0  0  0  0  0  0
    0.0000    0.0000    0.0000 C   0  0  0  0  0  0  0  0  0  0  0  0
    0.0000    0.0000    0.0000 C   0  0  0  0  0  0  0  0  0  0  0  0
    0.0000    0.0000    0.0000 C   0  0  0  0  0  0  0  0  0  0  0  0
    0.0000    0.0000    0.0000 C   0  0  0  0  0  0  0  0  0  0  0  0
    0.0000    0.0000    0.0000 C   0  0  0  0  0  0  0  0  0  0  0  0
    0.0000    0.0000    0.0000 C   0  0  0  0  0  0  0  0  0  0  0  0
    0.0000    0.0000    0.0000 C   0  0  0  0  0  0  0  0  0  0  0  0
    0.0000    0.0000    0.0000 Cl  0  0  0  0  0  0  0  0  0  0  0  0
    0.0000    0.0000    0.0000 C   0  0  0  0  0  0  0  0  0  0  0  0
    0.0000    0.0000    0.0000 O   0  0  0  0  0  0  0  0  0  0  0  0
    0.0000    0.0000    0.0000 C   0  0  0  0  0  0  0  0  0  0  0  0
  1  2  1  0
  2  3  2  0
  3  4  1  0
  4  5  2  0
  5  6  1  0
  6  7  2  0
  7  8  1  0
  8  9  2  0
  9 10  1  0
 10 11  1  0
 11 12  1  0
 12 13  1  0
 13 14  1  0
  8 15  1  0
 15 16  2  0
 16 17  1  0
 17 18  2  0
 18 19  1  0
 18 20  1  0
 20 21  1  0
 20 22  2  0
  7  2  1  0
 10  6  1  0
 14 11  1  0
 22 15  1  0
M  END
>  <pIC50>  (337) 
7.5

>  <ChEMBL_ID>  (337) 
CHEMBL1241580

>  <document_journal>  (337) 
Nat. Chem. Biol.

>  <bao_endpoint>  (337) 
BAO_0000190

>  <potential_duplicate>  (337) 
False

>  <uo_units>  (337) 
UO_0000065

>  <canonical_smiles>  (337) 
Nc1ncnc2c1c(nn2C3CCC3)c4ccc(Cl)c(O)c4

>  <parent_molecule_chembl_id>  (337) 
CHEMBL1241580

>  <assay_type>  (337) 
B

>  <src_id>  (337) 
1

>  <ligand_efficiency>  (337) 
{u'le': u'0.47', u'bei': u'23.74', u'sei': u'8.34', u'lle': u'4.28'}

>  <standard_flag>  (337) 
True

>  <molecule_chembl_id>  (337) 
CHEMBL1241580

>  <target_organism>  (337) 
Homo sapiens

>  <standard_units>  (337) 
nM

>  <record_id>  (337) 
952386

>  <document_chembl_id>  (337) 
CHEMBL1240340

>  <bao_format>  (337) 
BAO_0000357

>  <data_validity_description>  (337) 
None

>  <activity_id>  (337) 
3441085

>  <standard_type>  (337) 
IC50

>  <target_chembl_id>  (337) 
CHEMBL1862

>  <data_validity_comment>  (337) 
None

>  <published_value>  (337) 
0.032

>  <document_year>  (337) 
2008

>  <target_pref_name>  (337) 
Tyrosine-protein kinase ABL

>  <assay_chembl_id>  (337) 
CHEMBL1243972

>  <standard_relation>  (337) 
=

>  <assay_description>  (337) 
Inhibition of recombinant c-Abl by radioactive phosphotransfer assay in presence of 10 uM ATP

>  <published_relation>  (337) 
=

>  <standard_value>  (337) 
32

>  <qudt_units>  (337) 
http://www.openphacts.org/units/Nanomolar

>  <target_tax_id>  (337) 
9606

>  <bao_label>  (337) 
single protein format

>  <published_units>  (337) 
uM

>  <pchembl_value>  (337) 
7.5

>  <published_type>  (337) 
IC50

>  <activity_comment>  (337) 
None

$$$$

     RDKit          

 29 31  0  0  0  0  0  0  0  0999 V2000
    0.0000    0.0000    0.0000 C   0  0  0  0  0  0  0  0  0  0  0  0
    0.0000    0.0000    0.0000 O   0  0  0  0  0  0  0  0  0  0  0  0
    0.0000    0.0000    0.0000 C   0  0  0  0  0  0  0  0  0  0  0  0
    0.0000    0.0000    0.0000 C   0  0  0  0  0  0  0  0  0  0  0  0
    0.0000    0.0000    0.0000 C   0  0  0  0  0  0  0  0  0  0  0  0
    0.0000    0.0000    0.0000 C   0  0  0  0  0  0  0  0  0  0  0  0
    0.0000    0.0000    0.0000 C   0  0  0  0  0  0  0  0  0  0  0  0
    0.0000    0.0000    0.0000 C   0  0  0  0  0  0  0  0  0  0  0  0
    0.0000    0.0000    0.0000 N   0  0  0  0  0  0  0  0  0  0  0  0
    0.0000    0.0000    0.0000 C   0  0  0  0  0  0  0  0  0  0  0  0
    0.0000    0.0000    0.0000 O   0  0  0  0  0  0  0  0  0  0  0  0
    0.0000    0.0000    0.0000 O   0  0  0  0  0  0  0  0  0  0  0  0
    0.0000    0.0000    0.0000 C   0  0  0  0  0  0  0  0  0  0  0  0
    0.0000    0.0000    0.0000 C   0  0  0  0  0  0  0  0  0  0  0  0
    0.0000    0.0000    0.0000 C   0  0  0  0  0  0  0  0  0  0  0  0
    0.0000    0.0000    0.0000 C   0  0  0  0  0  0  0  0  0  0  0  0
    0.0000    0.0000    0.0000 C   0  0  0  0  0  0  0  0  0  0  0  0
    0.0000    0.0000    0.0000 N   0  0  0  0  0  0  0  0  0  0  0  0
    0.0000    0.0000    0.0000 N   0  0  0  0  0  0  0  0  0  0  0  0
    0.0000    0.0000    0.0000 C   0  0  0  0  0  0  0  0  0  0  0  0
    0.0000    0.0000    0.0000 C   0  0  0  0  0  0  0  0  0  0  0  0
    0.0000    0.0000    0.0000 C   0  0  0  0  0  0  0  0  0  0  0  0
    0.0000    0.0000    0.0000 C   0  0  0  0  0  0  0  0  0  0  0  0
    0.0000    0.0000    0.0000 N   0  0  0  0  0  0  0  0  0  0  0  0
    0.0000    0.0000    0.0000 C   0  0  0  0  0  0  0  0  0  0  0  0
    0.0000    0.0000    0.0000 N   0  0  0  0  0  0  0  0  0  0  0  0
    0.0000    0.0000    0.0000 C   0  0  0  0  0  0  0  0  0  0  0  0
    0.0000    0.0000    0.0000 N   0  0  0  0  0  0  0  0  0  0  0  0
    0.0000    0.0000    0.0000 C   0  0  0  0  0  0  0  0  0  0  0  0
  1  2  1  0
  2  3  1  0
  3  4  2  0
  4  5  1  0
  5  6  2  0
  6  7  1  0
  7  8  2  0
  8  9  1  0
  9 10  1  0
 10 11  2  0
 10 12  1  0
 12 13  1  0
 13 14  1  0
 13 15  1  0
 13 16  1  0
  5 17  1  0
 17 18  2  0
 18 19  1  0
 19 20  1  0
 20 21  1  0
 20 22  1  0
 19 23  1  0
 23 24  2  0
 24 25  1  0
 25 26  2  0
 26 27  1  0
 27 28  1  0
 27 29  2  0
  8  3  1  0
 29 17  1  0
 29 23  1  0
M  END
>  <pIC50>  (338) 
7.0

>  <ChEMBL_ID>  (338) 
CHEMBL1241481

>  <document_journal>  (338) 
Nat. Chem. Biol.

>  <bao_endpoint>  (338) 
BAO_0000190

>  <potential_duplicate>  (338) 
False

>  <uo_units>  (338) 
UO_0000065

>  <canonical_smiles>  (338) 
COc1cc(ccc1NC(=O)OC(C)(C)C)c2nn(C(C)C)c3ncnc(N)c23

>  <parent_molecule_chembl_id>  (338) 
CHEMBL1241481

>  <assay_type>  (338) 
B

>  <src_id>  (338) 
1

>  <ligand_efficiency>  (338) 
{u'le': u'0.33', u'bei': u'17.57', u'sei': u'5.97', u'lle': u'3.76'}

>  <standard_flag>  (338) 
True

>  <molecule_chembl_id>  (338) 
CHEMBL1241481

>  <target_organism>  (338) 
Homo sapiens

>  <standard_units>  (338) 
nM

>  <record_id>  (338) 
952245

>  <document_chembl_id>  (338) 
CHEMBL1240340

>  <bao_format>  (338) 
BAO_0000357

>  <data_validity_description>  (338) 
None

>  <activity_id>  (338) 
3441628

>  <standard_type>  (338) 
IC50

>  <target_chembl_id>  (338) 
CHEMBL1862

>  <data_validity_comment>  (338) 
None

>  <published_value>  (338) 
0.1

>  <document_year>  (338) 
2008

>  <target_pref_name>  (338) 
Tyrosine-protein kinase ABL

>  <assay_chembl_id>  (338) 
CHEMBL1243979

>  <standard_relation>  (338) 
=

>  <assay_description>  (338) 
Inhibition of ABL1 at 1 uM after 60 mins by FRET assay in presence of 10 uM ATP

>  <published_relation>  (338) 
=

>  <standard_value>  (338) 
100

>  <qudt_units>  (338) 
http://www.openphacts.org/units/Nanomolar

>  <target_tax_id>  (338) 
9606

>  <bao_label>  (338) 
single protein format

>  <published_units>  (338) 
uM

>  <pchembl_value>  (338) 
7

>  <published_type>  (338) 
IC50

>  <activity_comment>  (338) 
None

$$$$

     RDKit          

 21 23  0  0  0  0  0  0  0  0999 V2000
    0.0000    0.0000    0.0000 C   0  0  0  0  0  0  0  0  0  0  0  0
    0.0000    0.0000    0.0000 C   0  0  0  0  0  0  0  0  0  0  0  0
    0.0000    0.0000    0.0000 C   0  0  0  0  0  0  0  0  0  0  0  0
    0.0000    0.0000    0.0000 N   0  0  0  0  0  0  0  0  0  0  0  0
    0.0000    0.0000    0.0000 N   0  0  0  0  0  0  0  0  0  0  0  0
    0.0000    0.0000    0.0000 C   0  0  0  0  0  0  0  0  0  0  0  0
    0.0000    0.0000    0.0000 C   0  0  0  0  0  0  0  0  0  0  0  0
    0.0000    0.0000    0.0000 C   0  0  0  0  0  0  0  0  0  0  0  0
    0.0000    0.0000    0.0000 C   0  0  0  0  0  0  0  0  0  0  0  0
    0.0000    0.0000    0.0000 C   0  0  0  0  0  0  0  0  0  0  0  0
    0.0000    0.0000    0.0000 Br  0  0  0  0  0  0  0  0  0  0  0  0
    0.0000    0.0000    0.0000 C   0  0  0  0  0  0  0  0  0  0  0  0
    0.0000    0.0000    0.0000 O   0  0  0  0  0  0  0  0  0  0  0  0
    0.0000    0.0000    0.0000 C   0  0  0  0  0  0  0  0  0  0  0  0
    0.0000    0.0000    0.0000 C   0  0  0  0  0  0  0  0  0  0  0  0
    0.0000    0.0000    0.0000 C   0  0  0  0  0  0  0  0  0  0  0  0
    0.0000    0.0000    0.0000 N   0  0  0  0  0  0  0  0  0  0  0  0
    0.0000    0.0000    0.0000 N   0  0  0  0  0  0  0  0  0  0  0  0
    0.0000    0.0000    0.0000 C   0  0  0  0  0  0  0  0  0  0  0  0
    0.0000    0.0000    0.0000 N   0  0  0  0  0  0  0  0  0  0  0  0
    0.0000    0.0000    0.0000 C   0  0  0  0  0  0  0  0  0  0  0  0
  1  2  1  0
  2  3  1  0
  2  4  1  0
  4  5  1  0
  5  6  2  0
  6  7  1  0
  7  8  2  0
  8  9  1  0
  9 10  2  0
 10 11  1  0
 10 12  1  0
 12 13  1  0
 12 14  2  0
  6 15  1  0
 15 16  2  0
 16 17  1  0
 16 18  1  0
 18 19  2  0
 19 20  1  0
 20 21  2  0
 21  4  1  0
 14  7  1  0
 21 15  1  0
M  END
>  <pIC50>  (339) 
8.34

>  <ChEMBL_ID>  (339) 
CHEMBL1241578

>  <document_journal>  (339) 
Nat. Chem. Biol.

>  <bao_endpoint>  (339) 
BAO_0000190

>  <potential_duplicate>  (339) 
False

>  <uo_units>  (339) 
UO_0000065

>  <canonical_smiles>  (339) 
CC(C)n1nc(c2ccc(Br)c(O)c2)c3c(N)ncnc13

>  <parent_molecule_chembl_id>  (339) 
CHEMBL1241578

>  <assay_type>  (339) 
B

>  <src_id>  (339) 
1

>  <ligand_efficiency>  (339) 
{u'le': u'0.5', u'bei': u'22.05', u'sei': u'8.55', u'lle': u'4.61'}

>  <standard_flag>  (339) 
True

>  <molecule_chembl_id>  (339) 
CHEMBL1241578

>  <target_organism>  (339) 
Homo sapiens

>  <standard_units>  (339) 
nM

>  <record_id>  (339) 
952381

>  <document_chembl_id>  (339) 
CHEMBL1240340

>  <bao_format>  (339) 
BAO_0000357

>  <data_validity_description>  (339) 
None

>  <activity_id>  (339) 
3441635

>  <standard_type>  (339) 
IC50

>  <target_chembl_id>  (339) 
CHEMBL1862

>  <data_validity_comment>  (339) 
None

>  <published_value>  (339) 
0.021

>  <document_year>  (339) 
2008

>  <target_pref_name>  (339) 
Tyrosine-protein kinase ABL

>  <assay_chembl_id>  (339) 
CHEMBL1243972

>  <standard_relation>  (339) 
=

>  <assay_description>  (339) 
Inhibition of recombinant c-Abl by radioactive phosphotransfer assay in presence of 10 uM ATP

>  <published_relation>  (339) 
=

>  <standard_value>  (339) 
21

>  <qudt_units>  (339) 
http://www.openphacts.org/units/Nanomolar

>  <target_tax_id>  (339) 
9606

>  <bao_label>  (339) 
single protein format

>  <published_units>  (339) 
uM

>  <pchembl_value>  (339) 
7.68

>  <published_type>  (339) 
IC50

>  <activity_comment>  (339) 
None

$$$$

     RDKit          

 24 28  0  0  0  0  0  0  0  0999 V2000
    0.0000    0.0000    0.0000 N   0  0  0  0  0  0  0  0  0  0  0  0
    0.0000    0.0000    0.0000 C   0  0  0  0  0  0  0  0  0  0  0  0
    0.0000    0.0000    0.0000 N   0  0  0  0  0  0  0  0  0  0  0  0
    0.0000    0.0000    0.0000 C   0  0  0  0  0  0  0  0  0  0  0  0
    0.0000    0.0000    0.0000 N   0  0  0  0  0  0  0  0  0  0  0  0
    0.0000    0.0000    0.0000 C   0  0  0  0  0  0  0  0  0  0  0  0
    0.0000    0.0000    0.0000 C   0  0  0  0  0  0  0  0  0  0  0  0
    0.0000    0.0000    0.0000 C   0  0  0  0  0  0  0  0  0  0  0  0
    0.0000    0.0000    0.0000 N   0  0  0  0  0  0  0  0  0  0  0  0
    0.0000    0.0000    0.0000 N   0  0  0  0  0  0  0  0  0  0  0  0
    0.0000    0.0000    0.0000 C   0  0  0  0  0  0  0  0  0  0  0  0
    0.0000    0.0000    0.0000 C   0  0  0  0  0  0  0  0  0  0  0  0
    0.0000    0.0000    0.0000 C   0  0  0  0  0  0  0  0  0  0  0  0
    0.0000    0.0000    0.0000 C   0  0  0  0  0  0  0  0  0  0  0  0
    0.0000    0.0000    0.0000 C   0  0  0  0  0  0  0  0  0  0  0  0
    0.0000    0.0000    0.0000 C   0  0  0  0  0  0  0  0  0  0  0  0
    0.0000    0.0000    0.0000 C   0  0  0  0  0  0  0  0  0  0  0  0
    0.0000    0.0000    0.0000 N   0  0  0  0  0  0  0  0  0  0  0  0
    0.0000    0.0000    0.0000 C   0  0  0  0  0  0  0  0  0  0  0  0
    0.0000    0.0000    0.0000 N   0  0  0  0  0  0  0  0  0  0  0  0
    0.0000    0.0000    0.0000 C   0  0  0  0  0  0  0  0  0  0  0  0
    0.0000    0.0000    0.0000 C   0  0  0  0  0  0  0  0  0  0  0  0
    0.0000    0.0000    0.0000 C   0  0  0  0  0  0  0  0  0  0  0  0
    0.0000    0.0000    0.0000 C   0  0  0  0  0  0  0  0  0  0  0  0
  1  2  1  0
  2  3  2  0
  3  4  1  0
  4  5  2  0
  5  6  1  0
  6  7  2  0
  7  8  1  0
  8  9  2  0
  9 10  1  0
 10 11  1  0
 11 12  1  0
 12 13  1  0
 13 14  1  0
 14 15  1  0
  8 16  1  0
 16 17  2  0
 17 18  1  0
 18 19  2  0
 19 20  1  0
 20 21  1  0
 21 22  2  0
 22 23  1  0
 23 24  2  0
  7  2  1  0
 10  6  1  0
 15 11  1  0
 24 16  1  0
 23 19  1  0
M  END
>  <pIC50>  (340) 
8.06666666667

>  <ChEMBL_ID>  (340) 
CHEMBL1081312

>  <document_journal>  (340) 
Nat. Chem. Biol.

>  <bao_endpoint>  (340) 
BAO_0000190

>  <potential_duplicate>  (340) 
False

>  <uo_units>  (340) 
UO_0000065

>  <canonical_smiles>  (340) 
Nc1ncnc2c1c(nn2C3CCCC3)c4cnc5[nH]ccc5c4

>  <parent_molecule_chembl_id>  (340) 
CHEMBL1081312

>  <assay_type>  (340) 
B

>  <src_id>  (340) 
1

>  <ligand_efficiency>  (340) 
{u'le': u'0.44', u'bei': u'24.25', u'sei': u'7.88', u'lle': u'5.16'}

>  <standard_flag>  (340) 
True

>  <molecule_chembl_id>  (340) 
CHEMBL1081312

>  <target_organism>  (340) 
Homo sapiens

>  <standard_units>  (340) 
nM

>  <record_id>  (340) 
952382

>  <document_chembl_id>  (340) 
CHEMBL1240340

>  <bao_format>  (340) 
BAO_0000357

>  <data_validity_description>  (340) 
None

>  <activity_id>  (340) 
3441649

>  <standard_type>  (340) 
IC50

>  <target_chembl_id>  (340) 
CHEMBL1862

>  <data_validity_comment>  (340) 
None

>  <published_value>  (340) 
0.018

>  <document_year>  (340) 
2008

>  <target_pref_name>  (340) 
Tyrosine-protein kinase ABL

>  <assay_chembl_id>  (340) 
CHEMBL1243972

>  <standard_relation>  (340) 
=

>  <assay_description>  (340) 
Inhibition of recombinant c-Abl by radioactive phosphotransfer assay in presence of 10 uM ATP

>  <published_relation>  (340) 
=

>  <standard_value>  (340) 
18

>  <qudt_units>  (340) 
http://www.openphacts.org/units/Nanomolar

>  <target_tax_id>  (340) 
9606

>  <bao_label>  (340) 
single protein format

>  <published_units>  (340) 
uM

>  <pchembl_value>  (340) 
7.75

>  <published_type>  (340) 
IC50

>  <activity_comment>  (340) 
None

$$$$

     RDKit          

 23 26  0  0  0  0  0  0  0  0999 V2000
    0.0000    0.0000    0.0000 C   0  0  0  0  0  0  0  0  0  0  0  0
    0.0000    0.0000    0.0000 C   0  0  0  0  0  0  0  0  0  0  0  0
    0.0000    0.0000    0.0000 C   0  0  0  0  0  0  0  0  0  0  0  0
    0.0000    0.0000    0.0000 N   0  0  0  0  0  0  0  0  0  0  0  0
    0.0000    0.0000    0.0000 N   0  0  0  0  0  0  0  0  0  0  0  0
    0.0000    0.0000    0.0000 C   0  0  0  0  0  0  0  0  0  0  0  0
    0.0000    0.0000    0.0000 C   0  0  0  0  0  0  0  0  0  0  0  0
    0.0000    0.0000    0.0000 C   0  0  0  0  0  0  0  0  0  0  0  0
    0.0000    0.0000    0.0000 C   0  0  0  0  0  0  0  0  0  0  0  0
    0.0000    0.0000    0.0000 C   0  0  0  0  0  0  0  0  0  0  0  0
    0.0000    0.0000    0.0000 N   0  0  0  0  0  0  0  0  0  0  0  0
    0.0000    0.0000    0.0000 C   0  0  0  0  0  0  0  0  0  0  0  0
    0.0000    0.0000    0.0000 C   0  0  0  0  0  0  0  0  0  0  0  0
    0.0000    0.0000    0.0000 C   0  0  0  0  0  0  0  0  0  0  0  0
    0.0000    0.0000    0.0000 C   0  0  0  0  0  0  0  0  0  0  0  0
    0.0000    0.0000    0.0000 C   0  0  0  0  0  0  0  0  0  0  0  0
    0.0000    0.0000    0.0000 C   0  0  0  0  0  0  0  0  0  0  0  0
    0.0000    0.0000    0.0000 C   0  0  0  0  0  0  0  0  0  0  0  0
    0.0000    0.0000    0.0000 N   0  0  0  0  0  0  0  0  0  0  0  0
    0.0000    0.0000    0.0000 N   0  0  0  0  0  0  0  0  0  0  0  0
    0.0000    0.0000    0.0000 C   0  0  0  0  0  0  0  0  0  0  0  0
    0.0000    0.0000    0.0000 N   0  0  0  0  0  0  0  0  0  0  0  0
    0.0000    0.0000    0.0000 C   0  0  0  0  0  0  0  0  0  0  0  0
  1  2  1  0
  2  3  1  0
  2  4  1  0
  4  5  1  0
  5  6  2  0
  6  7  1  0
  7  8  2  0
  8  9  1  0
  9 10  2  0
 10 11  1  0
 11 12  2  0
 12 13  1  0
 13 14  2  0
 14 15  1  0
 15 16  2  0
  6 17  1  0
 17 18  2  0
 18 19  1  0
 18 20  1  0
 20 21  2  0
 21 22  1  0
 22 23  2  0
 23  4  1  0
 16  7  1  0
 15 10  1  0
 23 17  1  0
M  END
>  <pIC50>  (341) 
7.02666666667

>  <ChEMBL_ID>  (341) 
CHEMBL1233882

>  <document_journal>  (341) 
Nat. Chem. Biol.

>  <bao_endpoint>  (341) 
BAO_0000190

>  <potential_duplicate>  (341) 
False

>  <uo_units>  (341) 
UO_0000065

>  <canonical_smiles>  (341) 
CC(C)n1nc(c2ccc3ncccc3c2)c4c(N)ncnc14

>  <parent_molecule_chembl_id>  (341) 
CHEMBL1233882

>  <assay_type>  (341) 
B

>  <src_id>  (341) 
1

>  <ligand_efficiency>  (341) 
{u'le': u'0.41', u'bei': u'22.52', u'sei': u'8.31', u'lle': u'4.1'}

>  <standard_flag>  (341) 
True

>  <molecule_chembl_id>  (341) 
CHEMBL1233882

>  <target_organism>  (341) 
Homo sapiens

>  <standard_units>  (341) 
nM

>  <record_id>  (341) 
952383

>  <document_chembl_id>  (341) 
CHEMBL1240340

>  <bao_format>  (341) 
BAO_0000357

>  <data_validity_description>  (341) 
None

>  <activity_id>  (341) 
3441663

>  <standard_type>  (341) 
IC50

>  <target_chembl_id>  (341) 
CHEMBL1862

>  <data_validity_comment>  (341) 
None

>  <published_value>  (341) 
0.14

>  <document_year>  (341) 
2008

>  <target_pref_name>  (341) 
Tyrosine-protein kinase ABL

>  <assay_chembl_id>  (341) 
CHEMBL1243972

>  <standard_relation>  (341) 
=

>  <assay_description>  (341) 
Inhibition of recombinant c-Abl by radioactive phosphotransfer assay in presence of 10 uM ATP

>  <published_relation>  (341) 
=

>  <standard_value>  (341) 
140

>  <qudt_units>  (341) 
http://www.openphacts.org/units/Nanomolar

>  <target_tax_id>  (341) 
9606

>  <bao_label>  (341) 
single protein format

>  <published_units>  (341) 
uM

>  <pchembl_value>  (341) 
6.85

>  <published_type>  (341) 
IC50

>  <activity_comment>  (341) 
None

$$$$

     RDKit          

 24 27  0  0  0  0  0  0  0  0999 V2000
    0.0000    0.0000    0.0000 C   0  0  0  0  0  0  0  0  0  0  0  0
    0.0000    0.0000    0.0000 O   0  0  0  0  0  0  0  0  0  0  0  0
    0.0000    0.0000    0.0000 C   0  0  0  0  0  0  0  0  0  0  0  0
    0.0000    0.0000    0.0000 C   0  0  0  0  0  0  0  0  0  0  0  0
    0.0000    0.0000    0.0000 C   0  0  0  0  0  0  0  0  0  0  0  0
    0.0000    0.0000    0.0000 C   0  0  0  0  0  0  0  0  0  0  0  0
    0.0000    0.0000    0.0000 C   0  0  0  0  0  0  0  0  0  0  0  0
    0.0000    0.0000    0.0000 C   0  0  0  0  0  0  0  0  0  0  0  0
    0.0000    0.0000    0.0000 O   0  0  0  0  0  0  0  0  0  0  0  0
    0.0000    0.0000    0.0000 C   0  0  0  0  0  0  0  0  0  0  0  0
    0.0000    0.0000    0.0000 C   0  0  0  0  0  0  0  0  0  0  0  0
    0.0000    0.0000    0.0000 N   0  0  0  0  0  0  0  0  0  0  0  0
    0.0000    0.0000    0.0000 N   0  0  0  0  0  0  0  0  0  0  0  0
    0.0000    0.0000    0.0000 C   0  0  0  0  0  0  0  0  0  0  0  0
    0.0000    0.0000    0.0000 C   0  0  0  0  0  0  0  0  0  0  0  0
    0.0000    0.0000    0.0000 C   0  0  0  0  0  0  0  0  0  0  0  0
    0.0000    0.0000    0.0000 C   0  0  0  0  0  0  0  0  0  0  0  0
    0.0000    0.0000    0.0000 C   0  0  0  0  0  0  0  0  0  0  0  0
    0.0000    0.0000    0.0000 N   0  0  0  0  0  0  0  0  0  0  0  0
    0.0000    0.0000    0.0000 C   0  0  0  0  0  0  0  0  0  0  0  0
    0.0000    0.0000    0.0000 N   0  0  0  0  0  0  0  0  0  0  0  0
    0.0000    0.0000    0.0000 C   0  0  0  0  0  0  0  0  0  0  0  0
    0.0000    0.0000    0.0000 N   0  0  0  0  0  0  0  0  0  0  0  0
    0.0000    0.0000    0.0000 C   0  0  0  0  0  0  0  0  0  0  0  0
  1  2  1  0
  2  3  1  0
  3  4  2  0
  4  5  1  0
  5  6  2  0
  6  7  1  0
  7  8  2  0
  8  9  1  0
  9 10  1  0
  6 11  1  0
 11 12  2  0
 12 13  1  0
 13 14  1  0
 14 15  1  0
 15 16  1  0
 16 17  1  0
 13 18  1  0
 18 19  2  0
 19 20  1  0
 20 21  2  0
 21 22  1  0
 22 23  1  0
 22 24  2  0
  8  3  1  0
 24 11  1  0
 17 14  1  0
 24 18  1  0
M  END
>  <pIC50>  (342) 
6.57

>  <ChEMBL_ID>  (342) 
CHEMBL1233881

>  <document_journal>  (342) 
Nat. Chem. Biol.

>  <bao_endpoint>  (342) 
BAO_0000190

>  <potential_duplicate>  (342) 
False

>  <uo_units>  (342) 
UO_0000065

>  <canonical_smiles>  (342) 
COc1ccc(cc1OC)c2nn(C3CCC3)c4ncnc(N)c24

>  <parent_molecule_chembl_id>  (342) 
CHEMBL1233881

>  <assay_type>  (342) 
B

>  <src_id>  (342) 
1

>  <ligand_efficiency>  (342) 
{u'le': u'0.37', u'bei': u'19.88', u'sei': u'7.34', u'lle': u'3.72'}

>  <standard_flag>  (342) 
True

>  <molecule_chembl_id>  (342) 
CHEMBL1233881

>  <target_organism>  (342) 
Homo sapiens

>  <standard_units>  (342) 
nM

>  <record_id>  (342) 
952519

>  <document_chembl_id>  (342) 
CHEMBL1240340

>  <bao_format>  (342) 
BAO_0000357

>  <data_validity_description>  (342) 
None

>  <activity_id>  (342) 
3441677

>  <standard_type>  (342) 
IC50

>  <target_chembl_id>  (342) 
CHEMBL1862

>  <data_validity_comment>  (342) 
None

>  <published_value>  (342) 
0.34

>  <document_year>  (342) 
2008

>  <target_pref_name>  (342) 
Tyrosine-protein kinase ABL

>  <assay_chembl_id>  (342) 
CHEMBL1243972

>  <standard_relation>  (342) 
=

>  <assay_description>  (342) 
Inhibition of recombinant c-Abl by radioactive phosphotransfer assay in presence of 10 uM ATP

>  <published_relation>  (342) 
=

>  <standard_value>  (342) 
340

>  <qudt_units>  (342) 
http://www.openphacts.org/units/Nanomolar

>  <target_tax_id>  (342) 
9606

>  <bao_label>  (342) 
single protein format

>  <published_units>  (342) 
uM

>  <pchembl_value>  (342) 
6.47

>  <published_type>  (342) 
IC50

>  <activity_comment>  (342) 
None

$$$$

     RDKit          

 23 26  0  0  0  0  0  0  0  0999 V2000
    0.0000    0.0000    0.0000 C   0  0  0  0  0  0  0  0  0  0  0  0
    0.0000    0.0000    0.0000 C   0  0  0  0  0  0  0  0  0  0  0  0
    0.0000    0.0000    0.0000 C   0  0  0  0  0  0  0  0  0  0  0  0
    0.0000    0.0000    0.0000 N   0  0  0  0  0  0  0  0  0  0  0  0
    0.0000    0.0000    0.0000 N   0  0  0  0  0  0  0  0  0  0  0  0
    0.0000    0.0000    0.0000 C   0  0  0  0  0  0  0  0  0  0  0  0
    0.0000    0.0000    0.0000 C   0  0  0  0  0  0  0  0  0  0  0  0
    0.0000    0.0000    0.0000 C   0  0  0  0  0  0  0  0  0  0  0  0
    0.0000    0.0000    0.0000 C   0  0  0  0  0  0  0  0  0  0  0  0
    0.0000    0.0000    0.0000 C   0  0  0  0  0  0  0  0  0  0  0  0
    0.0000    0.0000    0.0000 C   0  0  0  0  0  0  0  0  0  0  0  0
    0.0000    0.0000    0.0000 O   0  0  0  0  0  0  0  0  0  0  0  0
    0.0000    0.0000    0.0000 C   0  0  0  0  0  0  0  0  0  0  0  0
    0.0000    0.0000    0.0000 C   0  0  0  0  0  0  0  0  0  0  0  0
    0.0000    0.0000    0.0000 C   0  0  0  0  0  0  0  0  0  0  0  0
    0.0000    0.0000    0.0000 N   0  0  0  0  0  0  0  0  0  0  0  0
    0.0000    0.0000    0.0000 C   0  0  0  0  0  0  0  0  0  0  0  0
    0.0000    0.0000    0.0000 C   0  0  0  0  0  0  0  0  0  0  0  0
    0.0000    0.0000    0.0000 N   0  0  0  0  0  0  0  0  0  0  0  0
    0.0000    0.0000    0.0000 N   0  0  0  0  0  0  0  0  0  0  0  0
    0.0000    0.0000    0.0000 C   0  0  0  0  0  0  0  0  0  0  0  0
    0.0000    0.0000    0.0000 N   0  0  0  0  0  0  0  0  0  0  0  0
    0.0000    0.0000    0.0000 C   0  0  0  0  0  0  0  0  0  0  0  0
  1  2  1  0
  2  3  1  0
  2  4  1  0
  4  5  1  0
  5  6  2  0
  6  7  1  0
  7  8  2  0
  8  9  1  0
  9 10  2  0
 10 11  1  0
 11 12  1  0
 11 13  2  0
 13 14  1  0
 14 15  2  0
 15 16  1  0
  6 17  1  0
 17 18  2  0
 18 19  1  0
 18 20  1  0
 20 21  2  0
 21 22  1  0
 22 23  2  0
 23  4  1  0
 16  7  1  0
 15  9  1  0
 23 17  1  0
M  END
>  <pIC50>  (343) 
5.915

>  <ChEMBL_ID>  (343) 
CHEMBL1241674

>  <document_journal>  (343) 
Nat. Chem. Biol.

>  <bao_endpoint>  (343) 
BAO_0000190

>  <potential_duplicate>  (343) 
False

>  <uo_units>  (343) 
UO_0000065

>  <canonical_smiles>  (343) 
CC(C)n1nc(c2cc3cc(O)ccc3[nH]2)c4c(N)ncnc14

>  <parent_molecule_chembl_id>  (343) 
CHEMBL1241674

>  <assay_type>  (343) 
B

>  <src_id>  (343) 
1

>  <ligand_efficiency>  (343) 
{u'le': u'0.32', u'bei': u'17.65', u'sei': u'5.15', u'lle': u'2.53'}

>  <standard_flag>  (343) 
True

>  <molecule_chembl_id>  (343) 
CHEMBL1241674

>  <target_organism>  (343) 
Homo sapiens

>  <standard_units>  (343) 
nM

>  <record_id>  (343) 
952520

>  <document_chembl_id>  (343) 
CHEMBL1240340

>  <bao_format>  (343) 
BAO_0000357

>  <data_validity_description>  (343) 
None

>  <activity_id>  (343) 
3441691

>  <standard_type>  (343) 
IC50

>  <target_chembl_id>  (343) 
CHEMBL1862

>  <data_validity_comment>  (343) 
None

>  <published_value>  (343) 
3.6

>  <document_year>  (343) 
2008

>  <target_pref_name>  (343) 
Tyrosine-protein kinase ABL

>  <assay_chembl_id>  (343) 
CHEMBL1243972

>  <standard_relation>  (343) 
=

>  <assay_description>  (343) 
Inhibition of recombinant c-Abl by radioactive phosphotransfer assay in presence of 10 uM ATP

>  <published_relation>  (343) 
=

>  <standard_value>  (343) 
3600

>  <qudt_units>  (343) 
http://www.openphacts.org/units/Nanomolar

>  <target_tax_id>  (343) 
9606

>  <bao_label>  (343) 
single protein format

>  <published_units>  (343) 
uM

>  <pchembl_value>  (343) 
5.44

>  <published_type>  (343) 
IC50

>  <activity_comment>  (343) 
None

$$$$

     RDKit          

 24 28  0  0  0  0  0  0  0  0999 V2000
    0.0000    0.0000    0.0000 N   0  0  0  0  0  0  0  0  0  0  0  0
    0.0000    0.0000    0.0000 C   0  0  0  0  0  0  0  0  0  0  0  0
    0.0000    0.0000    0.0000 N   0  0  0  0  0  0  0  0  0  0  0  0
    0.0000    0.0000    0.0000 C   0  0  0  0  0  0  0  0  0  0  0  0
    0.0000    0.0000    0.0000 N   0  0  0  0  0  0  0  0  0  0  0  0
    0.0000    0.0000    0.0000 C   0  0  0  0  0  0  0  0  0  0  0  0
    0.0000    0.0000    0.0000 C   0  0  0  0  0  0  0  0  0  0  0  0
    0.0000    0.0000    0.0000 C   0  0  0  0  0  0  0  0  0  0  0  0
    0.0000    0.0000    0.0000 N   0  0  0  0  0  0  0  0  0  0  0  0
    0.0000    0.0000    0.0000 N   0  0  0  0  0  0  0  0  0  0  0  0
    0.0000    0.0000    0.0000 C   0  0  0  0  0  0  0  0  0  0  0  0
    0.0000    0.0000    0.0000 C   0  0  0  0  0  0  0  0  0  0  0  0
    0.0000    0.0000    0.0000 C   0  0  0  0  0  0  0  0  0  0  0  0
    0.0000    0.0000    0.0000 C   0  0  0  0  0  0  0  0  0  0  0  0
    0.0000    0.0000    0.0000 C   0  0  0  0  0  0  0  0  0  0  0  0
    0.0000    0.0000    0.0000 C   0  0  0  0  0  0  0  0  0  0  0  0
    0.0000    0.0000    0.0000 C   0  0  0  0  0  0  0  0  0  0  0  0
    0.0000    0.0000    0.0000 C   0  0  0  0  0  0  0  0  0  0  0  0
    0.0000    0.0000    0.0000 N   0  0  0  0  0  0  0  0  0  0  0  0
    0.0000    0.0000    0.0000 C   0  0  0  0  0  0  0  0  0  0  0  0
    0.0000    0.0000    0.0000 C   0  0  0  0  0  0  0  0  0  0  0  0
    0.0000    0.0000    0.0000 N   0  0  0  0  0  0  0  0  0  0  0  0
    0.0000    0.0000    0.0000 C   0  0  0  0  0  0  0  0  0  0  0  0
    0.0000    0.0000    0.0000 C   0  0  0  0  0  0  0  0  0  0  0  0
  1  2  1  0
  2  3  2  0
  3  4  1  0
  4  5  2  0
  5  6  1  0
  6  7  2  0
  7  8  1  0
  8  9  2  0
  9 10  1  0
 10 11  1  0
 11 12  1  0
 12 13  1  0
 13 14  1  0
 14 15  1  0
  8 16  1  0
 16 17  1  0
 17 18  2  0
 18 19  1  0
 19 20  1  0
 20 21  2  0
 21 22  1  0
 22 23  2  0
 23 24  1  0
  7  2  1  0
 10  6  1  0
 15 11  1  0
 24 16  2  0
 23 19  1  0
M  END
>  <pIC50>  (344) 
5.37

>  <ChEMBL_ID>  (344) 
CHEMBL1241675

>  <document_journal>  (344) 
Nat. Chem. Biol.

>  <bao_endpoint>  (344) 
BAO_0000190

>  <potential_duplicate>  (344) 
False

>  <uo_units>  (344) 
UO_0000065

>  <canonical_smiles>  (344) 
Nc1ncnc2c1c(nn2C3CCCC3)c4ccn5ccnc5c4

>  <parent_molecule_chembl_id>  (344) 
CHEMBL1241675

>  <assay_type>  (344) 
B

>  <src_id>  (344) 
1

>  <ligand_efficiency>  (344) 
{u'le': u'0.28', u'bei': u'15.3', u'sei': u'5.62', u'lle': u'2.91'}

>  <standard_flag>  (344) 
True

>  <molecule_chembl_id>  (344) 
CHEMBL1241675

>  <target_organism>  (344) 
Homo sapiens

>  <standard_units>  (344) 
nM

>  <record_id>  (344) 
952521

>  <document_chembl_id>  (344) 
CHEMBL1240340

>  <bao_format>  (344) 
BAO_0000357

>  <data_validity_description>  (344) 
None

>  <activity_id>  (344) 
3441705

>  <standard_type>  (344) 
IC50

>  <target_chembl_id>  (344) 
CHEMBL1862

>  <data_validity_comment>  (344) 
None

>  <published_value>  (344) 
13

>  <document_year>  (344) 
2008

>  <target_pref_name>  (344) 
Tyrosine-protein kinase ABL

>  <assay_chembl_id>  (344) 
CHEMBL1243972

>  <standard_relation>  (344) 
=

>  <assay_description>  (344) 
Inhibition of recombinant c-Abl by radioactive phosphotransfer assay in presence of 10 uM ATP

>  <published_relation>  (344) 
=

>  <standard_value>  (344) 
13000

>  <qudt_units>  (344) 
http://www.openphacts.org/units/Nanomolar

>  <target_tax_id>  (344) 
9606

>  <bao_label>  (344) 
single protein format

>  <published_units>  (344) 
uM

>  <pchembl_value>  (344) 
4.89

>  <published_type>  (344) 
IC50

>  <activity_comment>  (344) 
None

$$$$

     RDKit          

 37 42  0  0  0  0  0  0  0  0999 V2000
    0.0000    0.0000    0.0000 C   0  0  0  0  0  0  0  0  0  0  0  0
    0.0000    0.0000    0.0000 C   0  0  0  0  0  0  0  0  0  0  0  0
    0.0000    0.0000    0.0000 C   0  0  0  0  0  0  0  0  0  0  0  0
    0.0000    0.0000    0.0000 C   0  0  0  0  0  0  0  0  0  0  0  0
    0.0000    0.0000    0.0000 C   0  0  0  0  0  0  0  0  0  0  0  0
    0.0000    0.0000    0.0000 C   0  0  0  0  0  0  0  0  0  0  0  0
    0.0000    0.0000    0.0000 C   0  0  0  0  0  0  0  0  0  0  0  0
    0.0000    0.0000    0.0000 N   0  0  0  0  0  0  0  0  0  0  0  0
    0.0000    0.0000    0.0000 C   0  0  0  0  0  0  0  0  0  0  0  0
    0.0000    0.0000    0.0000 N   0  0  0  0  0  0  0  0  0  0  0  0
    0.0000    0.0000    0.0000 C   0  0  0  0  0  0  0  0  0  0  0  0
    0.0000    0.0000    0.0000 C   0  0  0  0  0  0  0  0  0  0  0  0
    0.0000    0.0000    0.0000 C   0  0  0  0  0  0  0  0  0  0  0  0
    0.0000    0.0000    0.0000 C   0  0  0  0  0  0  0  0  0  0  0  0
    0.0000    0.0000    0.0000 C   0  0  0  0  0  0  0  0  0  0  0  0
    0.0000    0.0000    0.0000 C   0  0  0  0  0  0  0  0  0  0  0  0
    0.0000    0.0000    0.0000 C   0  0  0  0  0  0  0  0  0  0  0  0
    0.0000    0.0000    0.0000 C   0  0  0  0  0  0  0  0  0  0  0  0
    0.0000    0.0000    0.0000 O   0  0  0  0  0  0  0  0  0  0  0  0
    0.0000    0.0000    0.0000 C   0  0  0  0  0  0  0  0  0  0  0  0
    0.0000    0.0000    0.0000 N   0  0  0  0  0  0  0  0  0  0  0  0
    0.0000    0.0000    0.0000 N   0  0  0  0  0  0  0  0  0  0  0  0
    0.0000    0.0000    0.0000 C   0  0  0  0  0  0  0  0  0  0  0  0
    0.0000    0.0000    0.0000 C   0  0  0  0  0  0  0  0  0  0  0  0
    0.0000    0.0000    0.0000 C   0  0  0  0  0  0  0  0  0  0  0  0
    0.0000    0.0000    0.0000 C   0  0  0  0  0  0  0  0  0  0  0  0
    0.0000    0.0000    0.0000 C   0  0  0  0  0  0  0  0  0  0  0  0
    0.0000    0.0000    0.0000 C   0  0  0  0  0  0  0  0  0  0  0  0
    0.0000    0.0000    0.0000 O   0  0  0  0  0  0  0  0  0  0  0  0
    0.0000    0.0000    0.0000 C   0  0  0  0  0  0  0  0  0  0  0  0
    0.0000    0.0000    0.0000 C   0  0  0  0  0  0  0  0  0  0  0  0
    0.0000    0.0000    0.0000 C   0  0  0  0  0  0  0  0  0  0  0  0
    0.0000    0.0000    0.0000 N   0  0  0  0  0  0  0  0  0  0  0  0
    0.0000    0.0000    0.0000 N   0  0  0  0  0  0  0  0  0  0  0  0
    0.0000    0.0000    0.0000 C   0  0  0  0  0  0  0  0  0  0  0  0
    0.0000    0.0000    0.0000 N   0  0  0  0  0  0  0  0  0  0  0  0
    0.0000    0.0000    0.0000 C   0  0  0  0  0  0  0  0  0  0  0  0
  1  2  1  0
  2  3  2  0
  3  4  1  0
  4  5  2  0
  5  6  1  0
  6  7  2  0
  7  8  1  0
  8  9  1  0
  9 10  2  0
 10 11  1  0
 11 12  2  0
 12 13  1  0
 13 14  2  0
 14 15  1  0
 15 16  1  0
 15 17  2  0
 17 18  1  0
 18 19  2  0
  9 20  1  0
 20 21  1  0
 21 22  1  0
 22 23  2  0
 23 24  1  0
 24 25  2  0
 25 26  1  0
 26 27  2  0
 27 28  1  0
 28 29  1  0
 28 30  2  0
 23 31  1  0
 31 32  2  0
 32 33  1  0
 32 34  1  0
 34 35  2  0
 35 36  1  0
 36 37  2  0
  7  2  1  0
 18  8  1  0
 17 11  1  0
 37 21  1  0
 30 24  1  0
 37 31  1  0
M  END
>  <pIC50>  (345) 
4.77

>  <ChEMBL_ID>  (345) 
CHEMBL1241767

>  <document_journal>  (345) 
Nat. Chem. Biol.

>  <bao_endpoint>  (345) 
BAO_0000190

>  <potential_duplicate>  (345) 
False

>  <uo_units>  (345) 
UO_0000065

>  <canonical_smiles>  (345) 
Cc1ccccc1N2C(=Nc3cccc(C)c3C2=O)Cn4nc(c5cccc(O)c5)c6c(N)ncnc46

>  <parent_molecule_chembl_id>  (345) 
CHEMBL1241767

>  <assay_type>  (345) 
B

>  <src_id>  (345) 
1

>  <ligand_efficiency>  (345) 
{u'le': u'0.18', u'bei': u'9.74', u'sei': u'3.89', u'lle': u'-0.1'}

>  <standard_flag>  (345) 
True

>  <molecule_chembl_id>  (345) 
CHEMBL1241767

>  <target_organism>  (345) 
Homo sapiens

>  <standard_units>  (345) 
nM

>  <record_id>  (345) 
952658

>  <document_chembl_id>  (345) 
CHEMBL1240340

>  <bao_format>  (345) 
BAO_0000357

>  <data_validity_description>  (345) 
None

>  <activity_id>  (345) 
3441719

>  <standard_type>  (345) 
IC50

>  <target_chembl_id>  (345) 
CHEMBL1862

>  <data_validity_comment>  (345) 
None

>  <published_value>  (345) 
17

>  <document_year>  (345) 
2008

>  <target_pref_name>  (345) 
Tyrosine-protein kinase ABL

>  <assay_chembl_id>  (345) 
CHEMBL1243972

>  <standard_relation>  (345) 
=

>  <assay_description>  (345) 
Inhibition of recombinant c-Abl by radioactive phosphotransfer assay in presence of 10 uM ATP

>  <published_relation>  (345) 
=

>  <standard_value>  (345) 
17000

>  <qudt_units>  (345) 
http://www.openphacts.org/units/Nanomolar

>  <target_tax_id>  (345) 
9606

>  <bao_label>  (345) 
single protein format

>  <published_units>  (345) 
uM

>  <pchembl_value>  (345) 
4.77

>  <published_type>  (345) 
IC50

>  <activity_comment>  (345) 
None

$$$$

     RDKit          

 20 22  0  0  0  0  0  0  0  0999 V2000
    0.0000    0.0000    0.0000 C   0  0  0  0  0  0  0  0  0  0  0  0
    0.0000    0.0000    0.0000 C   0  0  0  0  0  0  0  0  0  0  0  0
    0.0000    0.0000    0.0000 C   0  0  0  0  0  0  0  0  0  0  0  0
    0.0000    0.0000    0.0000 N   0  0  0  0  0  0  0  0  0  0  0  0
    0.0000    0.0000    0.0000 N   0  0  0  0  0  0  0  0  0  0  0  0
    0.0000    0.0000    0.0000 C   0  0  0  0  0  0  0  0  0  0  0  0
    0.0000    0.0000    0.0000 C   0  0  0  0  0  0  0  0  0  0  0  0
    0.0000    0.0000    0.0000 C   0  0  0  0  0  0  0  0  0  0  0  0
    0.0000    0.0000    0.0000 C   0  0  0  0  0  0  0  0  0  0  0  0
    0.0000    0.0000    0.0000 C   0  0  0  0  0  0  0  0  0  0  0  0
    0.0000    0.0000    0.0000 C   0  0  0  0  0  0  0  0  0  0  0  0
    0.0000    0.0000    0.0000 O   0  0  0  0  0  0  0  0  0  0  0  0
    0.0000    0.0000    0.0000 C   0  0  0  0  0  0  0  0  0  0  0  0
    0.0000    0.0000    0.0000 C   0  0  0  0  0  0  0  0  0  0  0  0
    0.0000    0.0000    0.0000 C   0  0  0  0  0  0  0  0  0  0  0  0
    0.0000    0.0000    0.0000 N   0  0  0  0  0  0  0  0  0  0  0  0
    0.0000    0.0000    0.0000 N   0  0  0  0  0  0  0  0  0  0  0  0
    0.0000    0.0000    0.0000 C   0  0  0  0  0  0  0  0  0  0  0  0
    0.0000    0.0000    0.0000 N   0  0  0  0  0  0  0  0  0  0  0  0
    0.0000    0.0000    0.0000 C   0  0  0  0  0  0  0  0  0  0  0  0
  1  2  1  0
  2  3  1  0
  2  4  1  0
  4  5  1  0
  5  6  2  0
  6  7  1  0
  7  8  2  0
  8  9  1  0
  9 10  2  0
 10 11  1  0
 11 12  1  0
 11 13  2  0
  6 14  1  0
 14 15  2  0
 15 16  1  0
 15 17  1  0
 17 18  2  0
 18 19  1  0
 19 20  2  0
 20  4  1  0
 13  7  1  0
 20 14  1  0
M  END
>  <pIC50>  (346) 
7.16

>  <ChEMBL_ID>  (346) 
CHEMBL1230790

>  <document_journal>  (346) 
Nat. Chem. Biol.

>  <bao_endpoint>  (346) 
BAO_0000190

>  <potential_duplicate>  (346) 
False

>  <uo_units>  (346) 
UO_0000065

>  <canonical_smiles>  (346) 
CC(C)n1nc(c2cccc(O)c2)c3c(N)ncnc13

>  <parent_molecule_chembl_id>  (346) 
CHEMBL1230790

>  <assay_type>  (346) 
B

>  <src_id>  (346) 
1

>  <ligand_efficiency>  (346) 
{u'le': u'0.49', u'bei': u'26.57', u'sei': u'7.96', u'lle': u'4.83'}

>  <standard_flag>  (346) 
True

>  <molecule_chembl_id>  (346) 
CHEMBL1230790

>  <target_organism>  (346) 
Homo sapiens

>  <standard_units>  (346) 
nM

>  <record_id>  (346) 
951710

>  <document_chembl_id>  (346) 
CHEMBL1240340

>  <bao_format>  (346) 
BAO_0000357

>  <data_validity_description>  (346) 
None

>  <activity_id>  (346) 
3441862

>  <standard_type>  (346) 
IC50

>  <target_chembl_id>  (346) 
CHEMBL1862

>  <data_validity_comment>  (346) 
None

>  <published_value>  (346) 
0.07

>  <document_year>  (346) 
2008

>  <target_pref_name>  (346) 
Tyrosine-protein kinase ABL

>  <assay_chembl_id>  (346) 
CHEMBL1243972

>  <standard_relation>  (346) 
=

>  <assay_description>  (346) 
Inhibition of recombinant c-Abl by radioactive phosphotransfer assay in presence of 10 uM ATP

>  <published_relation>  (346) 
=

>  <standard_value>  (346) 
70

>  <qudt_units>  (346) 
http://www.openphacts.org/units/Nanomolar

>  <target_tax_id>  (346) 
9606

>  <bao_label>  (346) 
single protein format

>  <published_units>  (346) 
uM

>  <pchembl_value>  (346) 
7.16

>  <published_type>  (346) 
IC50

>  <activity_comment>  (346) 
None

$$$$

     RDKit          

 21 24  0  0  0  0  0  0  0  0999 V2000
    0.0000    0.0000    0.0000 C   0  0  0  0  0  0  0  0  0  0  0  0
    0.0000    0.0000    0.0000 N   0  0  0  0  0  0  0  0  0  0  0  0
    0.0000    0.0000    0.0000 N   0  0  0  0  0  0  0  0  0  0  0  0
    0.0000    0.0000    0.0000 C   0  0  0  0  0  0  0  0  0  0  0  0
    0.0000    0.0000    0.0000 C   0  0  0  0  0  0  0  0  0  0  0  0
    0.0000    0.0000    0.0000 C   0  0  0  0  0  0  0  0  0  0  0  0
    0.0000    0.0000    0.0000 C   0  0  0  0  0  0  0  0  0  0  0  0
    0.0000    0.0000    0.0000 C   0  0  0  0  0  0  0  0  0  0  0  0
    0.0000    0.0000    0.0000 C   0  0  0  0  0  0  0  0  0  0  0  0
    0.0000    0.0000    0.0000 C   0  0  0  0  0  0  0  0  0  0  0  0
    0.0000    0.0000    0.0000 C   0  0  0  0  0  0  0  0  0  0  0  0
    0.0000    0.0000    0.0000 C   0  0  0  0  0  0  0  0  0  0  0  0
    0.0000    0.0000    0.0000 C   0  0  0  0  0  0  0  0  0  0  0  0
    0.0000    0.0000    0.0000 C   0  0  0  0  0  0  0  0  0  0  0  0
    0.0000    0.0000    0.0000 C   0  0  0  0  0  0  0  0  0  0  0  0
    0.0000    0.0000    0.0000 C   0  0  0  0  0  0  0  0  0  0  0  0
    0.0000    0.0000    0.0000 N   0  0  0  0  0  0  0  0  0  0  0  0
    0.0000    0.0000    0.0000 N   0  0  0  0  0  0  0  0  0  0  0  0
    0.0000    0.0000    0.0000 C   0  0  0  0  0  0  0  0  0  0  0  0
    0.0000    0.0000    0.0000 N   0  0  0  0  0  0  0  0  0  0  0  0
    0.0000    0.0000    0.0000 C   0  0  0  0  0  0  0  0  0  0  0  0
  1  2  1  0
  2  3  1  0
  3  4  2  0
  4  5  1  0
  5  6  2  0
  6  7  1  0
  7  8  2  0
  8  9  1  0
  9 10  2  0
 10 11  1  0
 11 12  2  0
 12 13  1  0
 13 14  2  0
  4 15  1  0
 15 16  2  0
 16 17  1  0
 16 18  1  0
 18 19  2  0
 19 20  1  0
 20 21  2  0
 21  2  1  0
 14  5  1  0
 13  8  1  0
 21 15  1  0
M  END
>  <pIC50>  (347) 
5.92

>  <ChEMBL_ID>  (347) 
CHEMBL1234815

>  <document_journal>  (347) 
Nat. Chem. Biol.

>  <bao_endpoint>  (347) 
BAO_0000190

>  <potential_duplicate>  (347) 
False

>  <uo_units>  (347) 
UO_0000065

>  <canonical_smiles>  (347) 
Cn1nc(c2ccc3ccccc3c2)c4c(N)ncnc14

>  <parent_molecule_chembl_id>  (347) 
CHEMBL1234815

>  <assay_type>  (347) 
B

>  <src_id>  (347) 
1

>  <ligand_efficiency>  (347) 
{u'le': u'0.39', u'bei': u'21.51', u'sei': u'8.5', u'lle': u'3.17'}

>  <standard_flag>  (347) 
True

>  <molecule_chembl_id>  (347) 
CHEMBL1234815

>  <target_organism>  (347) 
Homo sapiens

>  <standard_units>  (347) 
nM

>  <record_id>  (347) 
952659

>  <document_chembl_id>  (347) 
CHEMBL1240340

>  <bao_format>  (347) 
BAO_0000357

>  <data_validity_description>  (347) 
None

>  <activity_id>  (347) 
3441876

>  <standard_type>  (347) 
IC50

>  <target_chembl_id>  (347) 
CHEMBL1862

>  <data_validity_comment>  (347) 
None

>  <published_value>  (347) 
1.2

>  <document_year>  (347) 
2008

>  <target_pref_name>  (347) 
Tyrosine-protein kinase ABL

>  <assay_chembl_id>  (347) 
CHEMBL1243972

>  <standard_relation>  (347) 
=

>  <assay_description>  (347) 
Inhibition of recombinant c-Abl by radioactive phosphotransfer assay in presence of 10 uM ATP

>  <published_relation>  (347) 
=

>  <standard_value>  (347) 
1200

>  <qudt_units>  (347) 
http://www.openphacts.org/units/Nanomolar

>  <target_tax_id>  (347) 
9606

>  <bao_label>  (347) 
single protein format

>  <published_units>  (347) 
uM

>  <pchembl_value>  (347) 
5.92

>  <published_type>  (347) 
IC50

>  <activity_comment>  (347) 
None

$$$$

     RDKit          

 20 22  0  0  0  0  0  0  0  0999 V2000
    0.0000    0.0000    0.0000 C   0  0  0  0  0  0  0  0  0  0  0  0
    0.0000    0.0000    0.0000 C   0  0  0  0  0  0  0  0  0  0  0  0
    0.0000    0.0000    0.0000 C   0  0  0  0  0  0  0  0  0  0  0  0
    0.0000    0.0000    0.0000 N   0  0  0  0  0  0  0  0  0  0  0  0
    0.0000    0.0000    0.0000 N   0  0  0  0  0  0  0  0  0  0  0  0
    0.0000    0.0000    0.0000 C   0  0  0  0  0  0  0  0  0  0  0  0
    0.0000    0.0000    0.0000 C   0  0  0  0  0  0  0  0  0  0  0  0
    0.0000    0.0000    0.0000 C   0  0  0  0  0  0  0  0  0  0  0  0
    0.0000    0.0000    0.0000 C   0  0  0  0  0  0  0  0  0  0  0  0
    0.0000    0.0000    0.0000 C   0  0  0  0  0  0  0  0  0  0  0  0
    0.0000    0.0000    0.0000 O   0  0  0  0  0  0  0  0  0  0  0  0
    0.0000    0.0000    0.0000 C   0  0  0  0  0  0  0  0  0  0  0  0
    0.0000    0.0000    0.0000 C   0  0  0  0  0  0  0  0  0  0  0  0
    0.0000    0.0000    0.0000 C   0  0  0  0  0  0  0  0  0  0  0  0
    0.0000    0.0000    0.0000 C   0  0  0  0  0  0  0  0  0  0  0  0
    0.0000    0.0000    0.0000 N   0  0  0  0  0  0  0  0  0  0  0  0
    0.0000    0.0000    0.0000 N   0  0  0  0  0  0  0  0  0  0  0  0
    0.0000    0.0000    0.0000 C   0  0  0  0  0  0  0  0  0  0  0  0
    0.0000    0.0000    0.0000 N   0  0  0  0  0  0  0  0  0  0  0  0
    0.0000    0.0000    0.0000 C   0  0  0  0  0  0  0  0  0  0  0  0
  1  2  1  0
  2  3  1  0
  2  4  1  0
  4  5  1  0
  5  6  2  0
  6  7  1  0
  7  8  2  0
  8  9  1  0
  9 10  2  0
 10 11  1  0
 10 12  1  0
 12 13  2  0
  6 14  1  0
 14 15  2  0
 15 16  1  0
 15 17  1  0
 17 18  2  0
 18 19  1  0
 19 20  2  0
 20  4  1  0
 13  7  1  0
 20 14  1  0
M  END
>  <pIC50>  (348) 
5.77

>  <ChEMBL_ID>  (348) 
CHEMBL1241241

>  <document_journal>  (348) 
Nat. Chem. Biol.

>  <bao_endpoint>  (348) 
BAO_0000190

>  <potential_duplicate>  (348) 
False

>  <uo_units>  (348) 
UO_0000065

>  <canonical_smiles>  (348) 
CC(C)n1nc(c2ccc(O)cc2)c3c(N)ncnc13

>  <parent_molecule_chembl_id>  (348) 
CHEMBL1241241

>  <assay_type>  (348) 
B

>  <src_id>  (348) 
1

>  <ligand_efficiency>  (348) 
{u'le': u'0.39', u'bei': u'21.42', u'sei': u'6.42', u'lle': u'3.45'}

>  <standard_flag>  (348) 
True

>  <molecule_chembl_id>  (348) 
CHEMBL1241241

>  <target_organism>  (348) 
Homo sapiens

>  <standard_units>  (348) 
nM

>  <record_id>  (348) 
951901

>  <document_chembl_id>  (348) 
CHEMBL1240340

>  <bao_format>  (348) 
BAO_0000357

>  <data_validity_description>  (348) 
None

>  <activity_id>  (348) 
3441974

>  <standard_type>  (348) 
IC50

>  <target_chembl_id>  (348) 
CHEMBL1862

>  <data_validity_comment>  (348) 
None

>  <published_value>  (348) 
1.7

>  <document_year>  (348) 
2008

>  <target_pref_name>  (348) 
Tyrosine-protein kinase ABL

>  <assay_chembl_id>  (348) 
CHEMBL1243972

>  <standard_relation>  (348) 
=

>  <assay_description>  (348) 
Inhibition of recombinant c-Abl by radioactive phosphotransfer assay in presence of 10 uM ATP

>  <published_relation>  (348) 
=

>  <standard_value>  (348) 
1700

>  <qudt_units>  (348) 
http://www.openphacts.org/units/Nanomolar

>  <target_tax_id>  (348) 
9606

>  <bao_label>  (348) 
single protein format

>  <published_units>  (348) 
uM

>  <pchembl_value>  (348) 
5.77

>  <published_type>  (348) 
IC50

>  <activity_comment>  (348) 
None

$$$$

     RDKit          

 21 23  0  0  0  0  0  0  0  0999 V2000
    0.0000    0.0000    0.0000 C   0  0  0  0  0  0  0  0  0  0  0  0
    0.0000    0.0000    0.0000 C   0  0  0  0  0  0  0  0  0  0  0  0
    0.0000    0.0000    0.0000 C   0  0  0  0  0  0  0  0  0  0  0  0
    0.0000    0.0000    0.0000 N   0  0  0  0  0  0  0  0  0  0  0  0
    0.0000    0.0000    0.0000 N   0  0  0  0  0  0  0  0  0  0  0  0
    0.0000    0.0000    0.0000 C   0  0  0  0  0  0  0  0  0  0  0  0
    0.0000    0.0000    0.0000 C   0  0  0  0  0  0  0  0  0  0  0  0
    0.0000    0.0000    0.0000 C   0  0  0  0  0  0  0  0  0  0  0  0
    0.0000    0.0000    0.0000 C   0  0  0  0  0  0  0  0  0  0  0  0
    0.0000    0.0000    0.0000 C   0  0  0  0  0  0  0  0  0  0  0  0
    0.0000    0.0000    0.0000 O   0  0  0  0  0  0  0  0  0  0  0  0
    0.0000    0.0000    0.0000 C   0  0  0  0  0  0  0  0  0  0  0  0
    0.0000    0.0000    0.0000 C   0  0  0  0  0  0  0  0  0  0  0  0
    0.0000    0.0000    0.0000 C   0  0  0  0  0  0  0  0  0  0  0  0
    0.0000    0.0000    0.0000 C   0  0  0  0  0  0  0  0  0  0  0  0
    0.0000    0.0000    0.0000 C   0  0  0  0  0  0  0  0  0  0  0  0
    0.0000    0.0000    0.0000 N   0  0  0  0  0  0  0  0  0  0  0  0
    0.0000    0.0000    0.0000 N   0  0  0  0  0  0  0  0  0  0  0  0
    0.0000    0.0000    0.0000 C   0  0  0  0  0  0  0  0  0  0  0  0
    0.0000    0.0000    0.0000 N   0  0  0  0  0  0  0  0  0  0  0  0
    0.0000    0.0000    0.0000 C   0  0  0  0  0  0  0  0  0  0  0  0
  1  2  1  0
  2  3  1  0
  2  4  1  0
  4  5  1  0
  5  6  2  0
  6  7  1  0
  7  8  2  0
  8  9  1  0
  9 10  2  0
 10 11  1  0
 10 12  1  0
 12 13  2  0
 13 14  1  0
  6 15  1  0
 15 16  2  0
 16 17  1  0
 16 18  1  0
 18 19  2  0
 19 20  1  0
 20 21  2  0
 21  4  1  0
 13  7  1  0
 21 15  1  0
M  END
>  <pIC50>  (349) 
7.16

>  <ChEMBL_ID>  (349) 
CHEMBL1242024

>  <document_journal>  (349) 
Nat. Chem. Biol.

>  <bao_endpoint>  (349) 
BAO_0000190

>  <potential_duplicate>  (349) 
False

>  <uo_units>  (349) 
UO_0000065

>  <canonical_smiles>  (349) 
CC(C)n1nc(c2ccc(O)cc2C)c3c(N)ncnc13

>  <parent_molecule_chembl_id>  (349) 
CHEMBL1242024

>  <assay_type>  (349) 
B

>  <src_id>  (349) 
1

>  <ligand_efficiency>  (349) 
{u'le': u'0.47', u'bei': u'25.25', u'sei': u'7.96', u'lle': u'4.34'}

>  <standard_flag>  (349) 
True

>  <molecule_chembl_id>  (349) 
CHEMBL1242024

>  <target_organism>  (349) 
Homo sapiens

>  <standard_units>  (349) 
nM

>  <record_id>  (349) 
953051

>  <document_chembl_id>  (349) 
CHEMBL1240340

>  <bao_format>  (349) 
BAO_0000357

>  <data_validity_description>  (349) 
None

>  <activity_id>  (349) 
3442030

>  <standard_type>  (349) 
IC50

>  <target_chembl_id>  (349) 
CHEMBL1862

>  <data_validity_comment>  (349) 
None

>  <published_value>  (349) 
0.07

>  <document_year>  (349) 
2008

>  <target_pref_name>  (349) 
Tyrosine-protein kinase ABL

>  <assay_chembl_id>  (349) 
CHEMBL1243972

>  <standard_relation>  (349) 
=

>  <assay_description>  (349) 
Inhibition of recombinant c-Abl by radioactive phosphotransfer assay in presence of 10 uM ATP

>  <published_relation>  (349) 
=

>  <standard_value>  (349) 
70

>  <qudt_units>  (349) 
http://www.openphacts.org/units/Nanomolar

>  <target_tax_id>  (349) 
9606

>  <bao_label>  (349) 
single protein format

>  <published_units>  (349) 
uM

>  <pchembl_value>  (349) 
7.16

>  <published_type>  (349) 
IC50

>  <activity_comment>  (349) 
None

$$$$

     RDKit          

 25 28  0  0  0  0  0  0  0  0999 V2000
    0.0000    0.0000    0.0000 C   0  0  0  0  0  0  0  0  0  0  0  0
    0.0000    0.0000    0.0000 C   0  0  0  0  0  0  0  0  0  0  0  0
    0.0000    0.0000    0.0000 C   0  0  0  0  0  0  0  0  0  0  0  0
    0.0000    0.0000    0.0000 C   0  0  0  0  0  0  0  0  0  0  0  0
    0.0000    0.0000    0.0000 C   0  0  0  0  0  0  0  0  0  0  0  0
    0.0000    0.0000    0.0000 C   0  0  0  0  0  0  0  0  0  0  0  0
    0.0000    0.0000    0.0000 C   0  0  0  0  0  0  0  0  0  0  0  0
    0.0000    0.0000    0.0000 O   0  0  0  0  0  0  0  0  0  0  0  0
    0.0000    0.0000    0.0000 C   0  0  0  0  0  0  0  0  0  0  0  0
    0.0000    0.0000    0.0000 C   0  0  0  0  0  0  0  0  0  0  0  0
    0.0000    0.0000    0.0000 C   0  0  0  0  0  0  0  0  0  0  0  0
    0.0000    0.0000    0.0000 C   0  0  0  0  0  0  0  0  0  0  0  0
    0.0000    0.0000    0.0000 C   0  0  0  0  0  0  0  0  0  0  0  0
    0.0000    0.0000    0.0000 C   0  0  0  0  0  0  0  0  0  0  0  0
    0.0000    0.0000    0.0000 C   0  0  0  0  0  0  0  0  0  0  0  0
    0.0000    0.0000    0.0000 C   0  0  0  0  0  0  0  0  0  0  0  0
    0.0000    0.0000    0.0000 N   0  0  0  0  0  0  0  0  0  0  0  0
    0.0000    0.0000    0.0000 N   0  0  0  0  0  0  0  0  0  0  0  0
    0.0000    0.0000    0.0000 C   0  0  0  0  0  0  0  0  0  0  0  0
    0.0000    0.0000    0.0000 N   0  0  0  0  0  0  0  0  0  0  0  0
    0.0000    0.0000    0.0000 C   0  0  0  0  0  0  0  0  0  0  0  0
    0.0000    0.0000    0.0000 N   0  0  0  0  0  0  0  0  0  0  0  0
    0.0000    0.0000    0.0000 C   0  0  0  0  0  0  0  0  0  0  0  0
    0.0000    0.0000    0.0000 N   0  0  0  0  0  0  0  0  0  0  0  0
    0.0000    0.0000    0.0000 C   0  0  0  0  0  0  0  0  0  0  0  0
  1  2  1  0
  2  3  2  0
  3  4  1  0
  4  5  2  0
  5  6  1  0
  6  7  2  0
  7  8  1  0
  8  9  1  0
  9 10  1  0
 10 11  2  0
 11 12  1  0
 12 13  2  0
 13 14  1  0
 14 15  2  0
  5 16  1  0
 16 17  2  0
 17 18  1  0
 18 19  1  0
 19 20  2  0
 20 21  1  0
 21 22  2  0
 22 23  1  0
 23 24  1  0
 23 25  2  0
  7  2  1  0
 15 10  1  0
 25 16  1  0
 25 19  1  0
M  END
>  <pIC50>  (350) 
4.89

>  <ChEMBL_ID>  (350) 
CHEMBL1242025

>  <document_journal>  (350) 
Nat. Chem. Biol.

>  <bao_endpoint>  (350) 
BAO_0000190

>  <potential_duplicate>  (350) 
False

>  <uo_units>  (350) 
UO_0000065

>  <canonical_smiles>  (350) 
Cc1ccc(cc1OCc2ccccc2)c3n[nH]c4ncnc(N)c34

>  <parent_molecule_chembl_id>  (350) 
CHEMBL1242025

>  <assay_type>  (350) 
B

>  <src_id>  (350) 
1

>  <ligand_efficiency>  (350) 
{u'le': u'0.27', u'bei': u'14.75', u'sei': u'5.45', u'lle': u'1.2'}

>  <standard_flag>  (350) 
True

>  <molecule_chembl_id>  (350) 
CHEMBL1242025

>  <target_organism>  (350) 
Homo sapiens

>  <standard_units>  (350) 
nM

>  <record_id>  (350) 
953052

>  <document_chembl_id>  (350) 
CHEMBL1240340

>  <bao_format>  (350) 
BAO_0000357

>  <data_validity_description>  (350) 
None

>  <activity_id>  (350) 
3442044

>  <standard_type>  (350) 
IC50

>  <target_chembl_id>  (350) 
CHEMBL1862

>  <data_validity_comment>  (350) 
None

>  <published_value>  (350) 
13

>  <document_year>  (350) 
2008

>  <target_pref_name>  (350) 
Tyrosine-protein kinase ABL

>  <assay_chembl_id>  (350) 
CHEMBL1243972

>  <standard_relation>  (350) 
=

>  <assay_description>  (350) 
Inhibition of recombinant c-Abl by radioactive phosphotransfer assay in presence of 10 uM ATP

>  <published_relation>  (350) 
=

>  <standard_value>  (350) 
13000

>  <qudt_units>  (350) 
http://www.openphacts.org/units/Nanomolar

>  <target_tax_id>  (350) 
9606

>  <bao_label>  (350) 
single protein format

>  <published_units>  (350) 
uM

>  <pchembl_value>  (350) 
4.89

>  <published_type>  (350) 
IC50

>  <activity_comment>  (350) 
None

$$$$

     RDKit          

 18 20  0  0  0  0  0  0  0  0999 V2000
    0.0000    0.0000    0.0000 C   0  0  0  0  0  0  0  0  0  0  0  0
    0.0000    0.0000    0.0000 C   0  0  0  0  0  0  0  0  0  0  0  0
    0.0000    0.0000    0.0000 C   0  0  0  0  0  0  0  0  0  0  0  0
    0.0000    0.0000    0.0000 C   0  0  0  0  0  0  0  0  0  0  0  0
    0.0000    0.0000    0.0000 C   0  0  0  0  0  0  0  0  0  0  0  0
    0.0000    0.0000    0.0000 C   0  0  0  0  0  0  0  0  0  0  0  0
    0.0000    0.0000    0.0000 C   0  0  0  0  0  0  0  0  0  0  0  0
    0.0000    0.0000    0.0000 O   0  0  0  0  0  0  0  0  0  0  0  0
    0.0000    0.0000    0.0000 C   0  0  0  0  0  0  0  0  0  0  0  0
    0.0000    0.0000    0.0000 N   0  0  0  0  0  0  0  0  0  0  0  0
    0.0000    0.0000    0.0000 N   0  0  0  0  0  0  0  0  0  0  0  0
    0.0000    0.0000    0.0000 C   0  0  0  0  0  0  0  0  0  0  0  0
    0.0000    0.0000    0.0000 N   0  0  0  0  0  0  0  0  0  0  0  0
    0.0000    0.0000    0.0000 C   0  0  0  0  0  0  0  0  0  0  0  0
    0.0000    0.0000    0.0000 N   0  0  0  0  0  0  0  0  0  0  0  0
    0.0000    0.0000    0.0000 C   0  0  0  0  0  0  0  0  0  0  0  0
    0.0000    0.0000    0.0000 N   0  0  0  0  0  0  0  0  0  0  0  0
    0.0000    0.0000    0.0000 C   0  0  0  0  0  0  0  0  0  0  0  0
  1  2  1  0
  2  3  2  0
  3  4  1  0
  4  5  2  0
  5  6  1  0
  6  7  2  0
  7  8  1  0
  5  9  1  0
  9 10  2  0
 10 11  1  0
 11 12  1  0
 12 13  2  0
 13 14  1  0
 14 15  2  0
 15 16  1  0
 16 17  1  0
 16 18  2  0
  7  2  1  0
 18  9  1  0
 18 12  1  0
M  END
>  <pIC50>  (351) 
6.25

>  <ChEMBL_ID>  (351) 
CHEMBL1241270

>  <document_journal>  (351) 
Nat. Chem. Biol.

>  <bao_endpoint>  (351) 
BAO_0000190

>  <potential_duplicate>  (351) 
False

>  <uo_units>  (351) 
UO_0000065

>  <canonical_smiles>  (351) 
Cc1ccc(cc1O)c2n[nH]c3ncnc(N)c23

>  <parent_molecule_chembl_id>  (351) 
CHEMBL1241270

>  <assay_type>  (351) 
B

>  <src_id>  (351) 
1

>  <ligand_efficiency>  (351) 
{u'le': u'0.47', u'bei': u'25.91', u'sei': u'6.21', u'lle': u'4.37'}

>  <standard_flag>  (351) 
True

>  <molecule_chembl_id>  (351) 
CHEMBL1241270

>  <target_organism>  (351) 
Homo sapiens

>  <standard_units>  (351) 
nM

>  <record_id>  (351) 
951946

>  <document_chembl_id>  (351) 
CHEMBL1240340

>  <bao_format>  (351) 
BAO_0000357

>  <data_validity_description>  (351) 
None

>  <activity_id>  (351) 
3442058

>  <standard_type>  (351) 
IC50

>  <target_chembl_id>  (351) 
CHEMBL1862

>  <data_validity_comment>  (351) 
None

>  <published_value>  (351) 
0.56

>  <document_year>  (351) 
2008

>  <target_pref_name>  (351) 
Tyrosine-protein kinase ABL

>  <assay_chembl_id>  (351) 
CHEMBL1243972

>  <standard_relation>  (351) 
=

>  <assay_description>  (351) 
Inhibition of recombinant c-Abl by radioactive phosphotransfer assay in presence of 10 uM ATP

>  <published_relation>  (351) 
=

>  <standard_value>  (351) 
560

>  <qudt_units>  (351) 
http://www.openphacts.org/units/Nanomolar

>  <target_tax_id>  (351) 
9606

>  <bao_label>  (351) 
single protein format

>  <published_units>  (351) 
uM

>  <pchembl_value>  (351) 
6.25

>  <published_type>  (351) 
IC50

>  <activity_comment>  (351) 
None

$$$$

     RDKit          

 19 21  0  0  0  0  0  0  0  0999 V2000
    0.0000    0.0000    0.0000 C   0  0  0  0  0  0  0  0  0  0  0  0
    0.0000    0.0000    0.0000 C   0  0  0  0  0  0  0  0  0  0  0  0
    0.0000    0.0000    0.0000 C   0  0  0  0  0  0  0  0  0  0  0  0
    0.0000    0.0000    0.0000 C   0  0  0  0  0  0  0  0  0  0  0  0
    0.0000    0.0000    0.0000 C   0  0  0  0  0  0  0  0  0  0  0  0
    0.0000    0.0000    0.0000 C   0  0  0  0  0  0  0  0  0  0  0  0
    0.0000    0.0000    0.0000 C   0  0  0  0  0  0  0  0  0  0  0  0
    0.0000    0.0000    0.0000 O   0  0  0  0  0  0  0  0  0  0  0  0
    0.0000    0.0000    0.0000 C   0  0  0  0  0  0  0  0  0  0  0  0
    0.0000    0.0000    0.0000 N   0  0  0  0  0  0  0  0  0  0  0  0
    0.0000    0.0000    0.0000 N   0  0  0  0  0  0  0  0  0  0  0  0
    0.0000    0.0000    0.0000 C   0  0  0  0  0  0  0  0  0  0  0  0
    0.0000    0.0000    0.0000 C   0  0  0  0  0  0  0  0  0  0  0  0
    0.0000    0.0000    0.0000 N   0  0  0  0  0  0  0  0  0  0  0  0
    0.0000    0.0000    0.0000 C   0  0  0  0  0  0  0  0  0  0  0  0
    0.0000    0.0000    0.0000 N   0  0  0  0  0  0  0  0  0  0  0  0
    0.0000    0.0000    0.0000 C   0  0  0  0  0  0  0  0  0  0  0  0
    0.0000    0.0000    0.0000 N   0  0  0  0  0  0  0  0  0  0  0  0
    0.0000    0.0000    0.0000 C   0  0  0  0  0  0  0  0  0  0  0  0
  1  2  1  0
  2  3  2  0
  3  4  1  0
  4  5  2  0
  5  6  1  0
  6  7  2  0
  7  8  1  0
  5  9  1  0
  9 10  2  0
 10 11  1  0
 11 12  1  0
 11 13  1  0
 13 14  2  0
 14 15  1  0
 15 16  2  0
 16 17  1  0
 17 18  1  0
 17 19  2  0
  7  2  1  0
 19  9  1  0
 19 13  1  0
M  END
>  <pIC50>  (352) 
6.63

>  <ChEMBL_ID>  (352) 
CHEMBL1241271

>  <document_journal>  (352) 
Nat. Chem. Biol.

>  <bao_endpoint>  (352) 
BAO_0000190

>  <potential_duplicate>  (352) 
False

>  <uo_units>  (352) 
UO_0000065

>  <canonical_smiles>  (352) 
Cc1ccc(cc1O)c2nn(C)c3ncnc(N)c23

>  <parent_molecule_chembl_id>  (352) 
CHEMBL1241271

>  <assay_type>  (352) 
B

>  <src_id>  (352) 
1

>  <ligand_efficiency>  (352) 
{u'le': u'0.48', u'bei': u'25.98', u'sei': u'7.38', u'lle': u'4.55'}

>  <standard_flag>  (352) 
True

>  <molecule_chembl_id>  (352) 
CHEMBL1241271

>  <target_organism>  (352) 
Homo sapiens

>  <standard_units>  (352) 
nM

>  <record_id>  (352) 
951947

>  <document_chembl_id>  (352) 
CHEMBL1240340

>  <bao_format>  (352) 
BAO_0000357

>  <data_validity_description>  (352) 
None

>  <activity_id>  (352) 
3442072

>  <standard_type>  (352) 
IC50

>  <target_chembl_id>  (352) 
CHEMBL1862

>  <data_validity_comment>  (352) 
None

>  <published_value>  (352) 
0.233

>  <document_year>  (352) 
2008

>  <target_pref_name>  (352) 
Tyrosine-protein kinase ABL

>  <assay_chembl_id>  (352) 
CHEMBL1243972

>  <standard_relation>  (352) 
=

>  <assay_description>  (352) 
Inhibition of recombinant c-Abl by radioactive phosphotransfer assay in presence of 10 uM ATP

>  <published_relation>  (352) 
=

>  <standard_value>  (352) 
233

>  <qudt_units>  (352) 
http://www.openphacts.org/units/Nanomolar

>  <target_tax_id>  (352) 
9606

>  <bao_label>  (352) 
single protein format

>  <published_units>  (352) 
uM

>  <pchembl_value>  (352) 
6.63

>  <published_type>  (352) 
IC50

>  <activity_comment>  (352) 
None

$$$$

     RDKit          

 21 23  0  0  0  0  0  0  0  0999 V2000
    0.0000    0.0000    0.0000 C   0  0  0  0  0  0  0  0  0  0  0  0
    0.0000    0.0000    0.0000 C   0  0  0  0  0  0  0  0  0  0  0  0
    0.0000    0.0000    0.0000 C   0  0  0  0  0  0  0  0  0  0  0  0
    0.0000    0.0000    0.0000 N   0  0  0  0  0  0  0  0  0  0  0  0
    0.0000    0.0000    0.0000 N   0  0  0  0  0  0  0  0  0  0  0  0
    0.0000    0.0000    0.0000 C   0  0  0  0  0  0  0  0  0  0  0  0
    0.0000    0.0000    0.0000 C   0  0  0  0  0  0  0  0  0  0  0  0
    0.0000    0.0000    0.0000 C   0  0  0  0  0  0  0  0  0  0  0  0
    0.0000    0.0000    0.0000 C   0  0  0  0  0  0  0  0  0  0  0  0
    0.0000    0.0000    0.0000 C   0  0  0  0  0  0  0  0  0  0  0  0
    0.0000    0.0000    0.0000 C   0  0  0  0  0  0  0  0  0  0  0  0
    0.0000    0.0000    0.0000 C   0  0  0  0  0  0  0  0  0  0  0  0
    0.0000    0.0000    0.0000 O   0  0  0  0  0  0  0  0  0  0  0  0
    0.0000    0.0000    0.0000 C   0  0  0  0  0  0  0  0  0  0  0  0
    0.0000    0.0000    0.0000 C   0  0  0  0  0  0  0  0  0  0  0  0
    0.0000    0.0000    0.0000 C   0  0  0  0  0  0  0  0  0  0  0  0
    0.0000    0.0000    0.0000 N   0  0  0  0  0  0  0  0  0  0  0  0
    0.0000    0.0000    0.0000 N   0  0  0  0  0  0  0  0  0  0  0  0
    0.0000    0.0000    0.0000 C   0  0  0  0  0  0  0  0  0  0  0  0
    0.0000    0.0000    0.0000 N   0  0  0  0  0  0  0  0  0  0  0  0
    0.0000    0.0000    0.0000 C   0  0  0  0  0  0  0  0  0  0  0  0
  1  2  1  0
  2  3  1  0
  2  4  1  0
  4  5  1  0
  5  6  2  0
  6  7  1  0
  7  8  2  0
  8  9  1  0
  9 10  2  0
 10 11  1  0
 10 12  1  0
 12 13  1  0
 12 14  2  0
  6 15  1  0
 15 16  2  0
 16 17  1  0
 16 18  1  0
 18 19  2  0
 19 20  1  0
 20 21  2  0
 21  4  1  0
 14  7  1  0
 21 15  1  0
M  END
>  <pIC50>  (353) 
7.51

>  <ChEMBL_ID>  (353) 
CHEMBL1242026

>  <document_journal>  (353) 
Nat. Chem. Biol.

>  <bao_endpoint>  (353) 
BAO_0000190

>  <potential_duplicate>  (353) 
False

>  <uo_units>  (353) 
UO_0000065

>  <canonical_smiles>  (353) 
CC(C)n1nc(c2ccc(C)c(O)c2)c3c(N)ncnc13

>  <parent_molecule_chembl_id>  (353) 
CHEMBL1242026

>  <assay_type>  (353) 
B

>  <src_id>  (353) 
1

>  <ligand_efficiency>  (353) 
{u'le': u'0.49', u'bei': u'26.5', u'sei': u'8.36', u'lle': u'4.7'}

>  <standard_flag>  (353) 
True

>  <molecule_chembl_id>  (353) 
CHEMBL1242026

>  <target_organism>  (353) 
Homo sapiens

>  <standard_units>  (353) 
nM

>  <record_id>  (353) 
953053

>  <document_chembl_id>  (353) 
CHEMBL1240340

>  <bao_format>  (353) 
BAO_0000357

>  <data_validity_description>  (353) 
None

>  <activity_id>  (353) 
3442086

>  <standard_type>  (353) 
IC50

>  <target_chembl_id>  (353) 
CHEMBL1862

>  <data_validity_comment>  (353) 
None

>  <published_value>  (353) 
0.031

>  <document_year>  (353) 
2008

>  <target_pref_name>  (353) 
Tyrosine-protein kinase ABL

>  <assay_chembl_id>  (353) 
CHEMBL1243972

>  <standard_relation>  (353) 
=

>  <assay_description>  (353) 
Inhibition of recombinant c-Abl by radioactive phosphotransfer assay in presence of 10 uM ATP

>  <published_relation>  (353) 
=

>  <standard_value>  (353) 
31

>  <qudt_units>  (353) 
http://www.openphacts.org/units/Nanomolar

>  <target_tax_id>  (353) 
9606

>  <bao_label>  (353) 
single protein format

>  <published_units>  (353) 
uM

>  <pchembl_value>  (353) 
7.51

>  <published_type>  (353) 
IC50

>  <activity_comment>  (353) 
None

$$$$

     RDKit          

 22 24  0  0  0  0  0  0  0  0999 V2000
    0.0000    0.0000    0.0000 C   0  0  0  0  0  0  0  0  0  0  0  0
    0.0000    0.0000    0.0000 C   0  0  0  0  0  0  0  0  0  0  0  0
    0.0000    0.0000    0.0000 C   0  0  0  0  0  0  0  0  0  0  0  0
    0.0000    0.0000    0.0000 C   0  0  0  0  0  0  0  0  0  0  0  0
    0.0000    0.0000    0.0000 N   0  0  0  0  0  0  0  0  0  0  0  0
    0.0000    0.0000    0.0000 N   0  0  0  0  0  0  0  0  0  0  0  0
    0.0000    0.0000    0.0000 C   0  0  0  0  0  0  0  0  0  0  0  0
    0.0000    0.0000    0.0000 C   0  0  0  0  0  0  0  0  0  0  0  0
    0.0000    0.0000    0.0000 C   0  0  0  0  0  0  0  0  0  0  0  0
    0.0000    0.0000    0.0000 C   0  0  0  0  0  0  0  0  0  0  0  0
    0.0000    0.0000    0.0000 C   0  0  0  0  0  0  0  0  0  0  0  0
    0.0000    0.0000    0.0000 C   0  0  0  0  0  0  0  0  0  0  0  0
    0.0000    0.0000    0.0000 C   0  0  0  0  0  0  0  0  0  0  0  0
    0.0000    0.0000    0.0000 O   0  0  0  0  0  0  0  0  0  0  0  0
    0.0000    0.0000    0.0000 C   0  0  0  0  0  0  0  0  0  0  0  0
    0.0000    0.0000    0.0000 C   0  0  0  0  0  0  0  0  0  0  0  0
    0.0000    0.0000    0.0000 C   0  0  0  0  0  0  0  0  0  0  0  0
    0.0000    0.0000    0.0000 N   0  0  0  0  0  0  0  0  0  0  0  0
    0.0000    0.0000    0.0000 N   0  0  0  0  0  0  0  0  0  0  0  0
    0.0000    0.0000    0.0000 C   0  0  0  0  0  0  0  0  0  0  0  0
    0.0000    0.0000    0.0000 N   0  0  0  0  0  0  0  0  0  0  0  0
    0.0000    0.0000    0.0000 C   0  0  0  0  0  0  0  0  0  0  0  0
  1  2  1  0
  2  3  1  0
  3  4  1  0
  3  5  1  0
  5  6  1  0
  6  7  2  0
  7  8  1  0
  8  9  2  0
  9 10  1  0
 10 11  2  0
 11 12  1  0
 11 13  1  0
 13 14  1  0
 13 15  2  0
  7 16  1  0
 16 17  2  0
 17 18  1  0
 17 19  1  0
 19 20  2  0
 20 21  1  0
 21 22  2  0
 22  5  1  0
 15  8  1  0
 22 16  1  0
M  END
>  <pIC50>  (354) 
6.8

>  <ChEMBL_ID>  (354) 
CHEMBL1242109

>  <document_journal>  (354) 
Nat. Chem. Biol.

>  <bao_endpoint>  (354) 
BAO_0000190

>  <potential_duplicate>  (354) 
False

>  <uo_units>  (354) 
UO_0000065

>  <canonical_smiles>  (354) 
CCC(C)n1nc(c2ccc(C)c(O)c2)c3c(N)ncnc13

>  <parent_molecule_chembl_id>  (354) 
CHEMBL1242109

>  <assay_type>  (354) 
B

>  <src_id>  (354) 
1

>  <ligand_efficiency>  (354) 
{u'le': u'0.42', u'bei': u'22.85', u'sei': u'7.56', u'lle': u'3.47'}

>  <standard_flag>  (354) 
True

>  <molecule_chembl_id>  (354) 
CHEMBL1242109

>  <target_organism>  (354) 
Homo sapiens

>  <standard_units>  (354) 
nM

>  <record_id>  (354) 
953180

>  <document_chembl_id>  (354) 
CHEMBL1240340

>  <bao_format>  (354) 
BAO_0000357

>  <data_validity_description>  (354) 
None

>  <activity_id>  (354) 
3442100

>  <standard_type>  (354) 
IC50

>  <target_chembl_id>  (354) 
CHEMBL1862

>  <data_validity_comment>  (354) 
None

>  <published_value>  (354) 
0.16

>  <document_year>  (354) 
2008

>  <target_pref_name>  (354) 
Tyrosine-protein kinase ABL

>  <assay_chembl_id>  (354) 
CHEMBL1243972

>  <standard_relation>  (354) 
=

>  <assay_description>  (354) 
Inhibition of recombinant c-Abl by radioactive phosphotransfer assay in presence of 10 uM ATP

>  <published_relation>  (354) 
=

>  <standard_value>  (354) 
160

>  <qudt_units>  (354) 
http://www.openphacts.org/units/Nanomolar

>  <target_tax_id>  (354) 
9606

>  <bao_label>  (354) 
single protein format

>  <published_units>  (354) 
uM

>  <pchembl_value>  (354) 
6.8

>  <published_type>  (354) 
IC50

>  <activity_comment>  (354) 
None

$$$$

     RDKit          

 21 23  0  0  0  0  0  0  0  0999 V2000
    0.0000    0.0000    0.0000 C   0  0  0  0  0  0  0  0  0  0  0  0
    0.0000    0.0000    0.0000 C   0  0  0  0  0  0  0  0  0  0  0  0
    0.0000    0.0000    0.0000 C   0  0  0  0  0  0  0  0  0  0  0  0
    0.0000    0.0000    0.0000 N   0  0  0  0  0  0  0  0  0  0  0  0
    0.0000    0.0000    0.0000 N   0  0  0  0  0  0  0  0  0  0  0  0
    0.0000    0.0000    0.0000 C   0  0  0  0  0  0  0  0  0  0  0  0
    0.0000    0.0000    0.0000 C   0  0  0  0  0  0  0  0  0  0  0  0
    0.0000    0.0000    0.0000 C   0  0  0  0  0  0  0  0  0  0  0  0
    0.0000    0.0000    0.0000 C   0  0  0  0  0  0  0  0  0  0  0  0
    0.0000    0.0000    0.0000 C   0  0  0  0  0  0  0  0  0  0  0  0
    0.0000    0.0000    0.0000 C   0  0  0  0  0  0  0  0  0  0  0  0
    0.0000    0.0000    0.0000 O   0  0  0  0  0  0  0  0  0  0  0  0
    0.0000    0.0000    0.0000 C   0  0  0  0  0  0  0  0  0  0  0  0
    0.0000    0.0000    0.0000 F   0  0  0  0  0  0  0  0  0  0  0  0
    0.0000    0.0000    0.0000 C   0  0  0  0  0  0  0  0  0  0  0  0
    0.0000    0.0000    0.0000 C   0  0  0  0  0  0  0  0  0  0  0  0
    0.0000    0.0000    0.0000 N   0  0  0  0  0  0  0  0  0  0  0  0
    0.0000    0.0000    0.0000 N   0  0  0  0  0  0  0  0  0  0  0  0
    0.0000    0.0000    0.0000 C   0  0  0  0  0  0  0  0  0  0  0  0
    0.0000    0.0000    0.0000 N   0  0  0  0  0  0  0  0  0  0  0  0
    0.0000    0.0000    0.0000 C   0  0  0  0  0  0  0  0  0  0  0  0
  1  2  1  0
  2  3  1  0
  2  4  1  0
  4  5  1  0
  5  6  2  0
  6  7  1  0
  7  8  2  0
  8  9  1  0
  9 10  2  0
 10 11  1  0
 11 12  1  0
 11 13  2  0
 13 14  1  0
  6 15  1  0
 15 16  2  0
 16 17  1  0
 16 18  1  0
 18 19  2  0
 19 20  1  0
 20 21  2  0
 21  4  1  0
 13  7  1  0
 21 15  1  0
M  END
>  <pIC50>  (355) 
7.13

>  <ChEMBL_ID>  (355) 
CHEMBL1242110

>  <document_journal>  (355) 
Nat. Chem. Biol.

>  <bao_endpoint>  (355) 
BAO_0000190

>  <potential_duplicate>  (355) 
False

>  <uo_units>  (355) 
UO_0000065

>  <canonical_smiles>  (355) 
CC(C)n1nc(c2cccc(O)c2F)c3c(N)ncnc13

>  <parent_molecule_chembl_id>  (355) 
CHEMBL1242110

>  <assay_type>  (355) 
B

>  <src_id>  (355) 
1

>  <ligand_efficiency>  (355) 
{u'le': u'0.46', u'bei': u'24.8', u'sei': u'7.93', u'lle': u'4.59'}

>  <standard_flag>  (355) 
True

>  <molecule_chembl_id>  (355) 
CHEMBL1242110

>  <target_organism>  (355) 
Homo sapiens

>  <standard_units>  (355) 
nM

>  <record_id>  (355) 
953181

>  <document_chembl_id>  (355) 
CHEMBL1240340

>  <bao_format>  (355) 
BAO_0000357

>  <data_validity_description>  (355) 
None

>  <activity_id>  (355) 
3442114

>  <standard_type>  (355) 
IC50

>  <target_chembl_id>  (355) 
CHEMBL1862

>  <data_validity_comment>  (355) 
None

>  <published_value>  (355) 
0.075

>  <document_year>  (355) 
2008

>  <target_pref_name>  (355) 
Tyrosine-protein kinase ABL

>  <assay_chembl_id>  (355) 
CHEMBL1243972

>  <standard_relation>  (355) 
=

>  <assay_description>  (355) 
Inhibition of recombinant c-Abl by radioactive phosphotransfer assay in presence of 10 uM ATP

>  <published_relation>  (355) 
=

>  <standard_value>  (355) 
75

>  <qudt_units>  (355) 
http://www.openphacts.org/units/Nanomolar

>  <target_tax_id>  (355) 
9606

>  <bao_label>  (355) 
single protein format

>  <published_units>  (355) 
uM

>  <pchembl_value>  (355) 
7.13

>  <published_type>  (355) 
IC50

>  <activity_comment>  (355) 
None

$$$$

     RDKit          

 23 26  0  0  0  0  0  0  0  0999 V2000
    0.0000    0.0000    0.0000 N   0  0  0  0  0  0  0  0  0  0  0  0
    0.0000    0.0000    0.0000 C   0  0  0  0  0  0  0  0  0  0  0  0
    0.0000    0.0000    0.0000 N   0  0  0  0  0  0  0  0  0  0  0  0
    0.0000    0.0000    0.0000 C   0  0  0  0  0  0  0  0  0  0  0  0
    0.0000    0.0000    0.0000 N   0  0  0  0  0  0  0  0  0  0  0  0
    0.0000    0.0000    0.0000 C   0  0  0  0  0  0  0  0  0  0  0  0
    0.0000    0.0000    0.0000 C   0  0  0  0  0  0  0  0  0  0  0  0
    0.0000    0.0000    0.0000 C   0  0  0  0  0  0  0  0  0  0  0  0
    0.0000    0.0000    0.0000 N   0  0  0  0  0  0  0  0  0  0  0  0
    0.0000    0.0000    0.0000 N   0  0  0  0  0  0  0  0  0  0  0  0
    0.0000    0.0000    0.0000 C   0  0  0  0  0  0  0  0  0  0  0  0
    0.0000    0.0000    0.0000 C   0  0  0  0  0  0  0  0  0  0  0  0
    0.0000    0.0000    0.0000 C   0  0  0  0  0  0  0  0  0  0  0  0
    0.0000    0.0000    0.0000 C   0  0  0  0  0  0  0  0  0  0  0  0
    0.0000    0.0000    0.0000 C   0  0  0  0  0  0  0  0  0  0  0  0
    0.0000    0.0000    0.0000 C   0  0  0  0  0  0  0  0  0  0  0  0
    0.0000    0.0000    0.0000 C   0  0  0  0  0  0  0  0  0  0  0  0
    0.0000    0.0000    0.0000 C   0  0  0  0  0  0  0  0  0  0  0  0
    0.0000    0.0000    0.0000 C   0  0  0  0  0  0  0  0  0  0  0  0
    0.0000    0.0000    0.0000 C   0  0  0  0  0  0  0  0  0  0  0  0
    0.0000    0.0000    0.0000 O   0  0  0  0  0  0  0  0  0  0  0  0
    0.0000    0.0000    0.0000 C   0  0  0  0  0  0  0  0  0  0  0  0
    0.0000    0.0000    0.0000 F   0  0  0  0  0  0  0  0  0  0  0  0
  1  2  1  0
  2  3  2  0
  3  4  1  0
  4  5  2  0
  5  6  1  0
  6  7  2  0
  7  8  1  0
  8  9  2  0
  9 10  1  0
 10 11  1  0
 11 12  1  0
 12 13  1  0
 13 14  1  0
 14 15  1  0
  8 16  1  0
 16 17  2  0
 17 18  1  0
 18 19  2  0
 19 20  1  0
 20 21  1  0
 20 22  2  0
 22 23  1  0
  7  2  1  0
 10  6  1  0
 15 11  1  0
 22 16  1  0
M  END
>  <pIC50>  (356) 
7.2

>  <ChEMBL_ID>  (356) 
CHEMBL1242111

>  <document_journal>  (356) 
Nat. Chem. Biol.

>  <bao_endpoint>  (356) 
BAO_0000190

>  <potential_duplicate>  (356) 
False

>  <uo_units>  (356) 
UO_0000065

>  <canonical_smiles>  (356) 
Nc1ncnc2c1c(nn2C3CCCC3)c4cccc(O)c4F

>  <parent_molecule_chembl_id>  (356) 
CHEMBL1242111

>  <assay_type>  (356) 
B

>  <src_id>  (356) 
1

>  <ligand_efficiency>  (356) 
{u'le': u'0.43', u'bei': u'22.98', u'sei': u'8.01', u'lle': u'3.99'}

>  <standard_flag>  (356) 
True

>  <molecule_chembl_id>  (356) 
CHEMBL1242111

>  <target_organism>  (356) 
Homo sapiens

>  <standard_units>  (356) 
nM

>  <record_id>  (356) 
953182

>  <document_chembl_id>  (356) 
CHEMBL1240340

>  <bao_format>  (356) 
BAO_0000357

>  <data_validity_description>  (356) 
None

>  <activity_id>  (356) 
3442128

>  <standard_type>  (356) 
IC50

>  <target_chembl_id>  (356) 
CHEMBL1862

>  <data_validity_comment>  (356) 
None

>  <published_value>  (356) 
0.063

>  <document_year>  (356) 
2008

>  <target_pref_name>  (356) 
Tyrosine-protein kinase ABL

>  <assay_chembl_id>  (356) 
CHEMBL1243972

>  <standard_relation>  (356) 
=

>  <assay_description>  (356) 
Inhibition of recombinant c-Abl by radioactive phosphotransfer assay in presence of 10 uM ATP

>  <published_relation>  (356) 
=

>  <standard_value>  (356) 
63

>  <qudt_units>  (356) 
http://www.openphacts.org/units/Nanomolar

>  <target_tax_id>  (356) 
9606

>  <bao_label>  (356) 
single protein format

>  <published_units>  (356) 
uM

>  <pchembl_value>  (356) 
7.2

>  <published_type>  (356) 
IC50

>  <activity_comment>  (356) 
None

$$$$

     RDKit          

 21 23  0  0  0  0  0  0  0  0999 V2000
    0.0000    0.0000    0.0000 C   0  0  0  0  0  0  0  0  0  0  0  0
    0.0000    0.0000    0.0000 C   0  0  0  0  0  0  0  0  0  0  0  0
    0.0000    0.0000    0.0000 C   0  0  0  0  0  0  0  0  0  0  0  0
    0.0000    0.0000    0.0000 N   0  0  0  0  0  0  0  0  0  0  0  0
    0.0000    0.0000    0.0000 N   0  0  0  0  0  0  0  0  0  0  0  0
    0.0000    0.0000    0.0000 C   0  0  0  0  0  0  0  0  0  0  0  0
    0.0000    0.0000    0.0000 C   0  0  0  0  0  0  0  0  0  0  0  0
    0.0000    0.0000    0.0000 C   0  0  0  0  0  0  0  0  0  0  0  0
    0.0000    0.0000    0.0000 C   0  0  0  0  0  0  0  0  0  0  0  0
    0.0000    0.0000    0.0000 O   0  0  0  0  0  0  0  0  0  0  0  0
    0.0000    0.0000    0.0000 C   0  0  0  0  0  0  0  0  0  0  0  0
    0.0000    0.0000    0.0000 C   0  0  0  0  0  0  0  0  0  0  0  0
    0.0000    0.0000    0.0000 F   0  0  0  0  0  0  0  0  0  0  0  0
    0.0000    0.0000    0.0000 C   0  0  0  0  0  0  0  0  0  0  0  0
    0.0000    0.0000    0.0000 C   0  0  0  0  0  0  0  0  0  0  0  0
    0.0000    0.0000    0.0000 C   0  0  0  0  0  0  0  0  0  0  0  0
    0.0000    0.0000    0.0000 N   0  0  0  0  0  0  0  0  0  0  0  0
    0.0000    0.0000    0.0000 N   0  0  0  0  0  0  0  0  0  0  0  0
    0.0000    0.0000    0.0000 C   0  0  0  0  0  0  0  0  0  0  0  0
    0.0000    0.0000    0.0000 N   0  0  0  0  0  0  0  0  0  0  0  0
    0.0000    0.0000    0.0000 C   0  0  0  0  0  0  0  0  0  0  0  0
  1  2  1  0
  2  3  1  0
  2  4  1  0
  4  5  1  0
  5  6  2  0
  6  7  1  0
  7  8  2  0
  8  9  1  0
  9 10  1  0
  9 11  2  0
 11 12  1  0
 12 13  1  0
 12 14  2  0
  6 15  1  0
 15 16  2  0
 16 17  1  0
 16 18  1  0
 18 19  2  0
 19 20  1  0
 20 21  2  0
 21  4  1  0
 14  7  1  0
 21 15  1  0
M  END
>  <pIC50>  (357) 
7.28

>  <ChEMBL_ID>  (357) 
CHEMBL1242198

>  <document_journal>  (357) 
Nat. Chem. Biol.

>  <bao_endpoint>  (357) 
BAO_0000190

>  <potential_duplicate>  (357) 
False

>  <uo_units>  (357) 
UO_0000065

>  <canonical_smiles>  (357) 
CC(C)n1nc(c2cc(O)cc(F)c2)c3c(N)ncnc13

>  <parent_molecule_chembl_id>  (357) 
CHEMBL1242198

>  <assay_type>  (357) 
B

>  <src_id>  (357) 
1

>  <ligand_efficiency>  (357) 
{u'le': u'0.47', u'bei': u'25.35', u'sei': u'8.11', u'lle': u'4.75'}

>  <standard_flag>  (357) 
True

>  <molecule_chembl_id>  (357) 
CHEMBL1242198

>  <target_organism>  (357) 
Homo sapiens

>  <standard_units>  (357) 
nM

>  <record_id>  (357) 
953312

>  <document_chembl_id>  (357) 
CHEMBL1240340

>  <bao_format>  (357) 
BAO_0000357

>  <data_validity_description>  (357) 
None

>  <activity_id>  (357) 
3442142

>  <standard_type>  (357) 
IC50

>  <target_chembl_id>  (357) 
CHEMBL1862

>  <data_validity_comment>  (357) 
None

>  <published_value>  (357) 
0.052

>  <document_year>  (357) 
2008

>  <target_pref_name>  (357) 
Tyrosine-protein kinase ABL

>  <assay_chembl_id>  (357) 
CHEMBL1243972

>  <standard_relation>  (357) 
=

>  <assay_description>  (357) 
Inhibition of recombinant c-Abl by radioactive phosphotransfer assay in presence of 10 uM ATP

>  <published_relation>  (357) 
=

>  <standard_value>  (357) 
52

>  <qudt_units>  (357) 
http://www.openphacts.org/units/Nanomolar

>  <target_tax_id>  (357) 
9606

>  <bao_label>  (357) 
single protein format

>  <published_units>  (357) 
uM

>  <pchembl_value>  (357) 
7.28

>  <published_type>  (357) 
IC50

>  <activity_comment>  (357) 
None

$$$$

     RDKit          

 23 26  0  0  0  0  0  0  0  0999 V2000
    0.0000    0.0000    0.0000 N   0  0  0  0  0  0  0  0  0  0  0  0
    0.0000    0.0000    0.0000 C   0  0  0  0  0  0  0  0  0  0  0  0
    0.0000    0.0000    0.0000 N   0  0  0  0  0  0  0  0  0  0  0  0
    0.0000    0.0000    0.0000 C   0  0  0  0  0  0  0  0  0  0  0  0
    0.0000    0.0000    0.0000 N   0  0  0  0  0  0  0  0  0  0  0  0
    0.0000    0.0000    0.0000 C   0  0  0  0  0  0  0  0  0  0  0  0
    0.0000    0.0000    0.0000 C   0  0  0  0  0  0  0  0  0  0  0  0
    0.0000    0.0000    0.0000 C   0  0  0  0  0  0  0  0  0  0  0  0
    0.0000    0.0000    0.0000 N   0  0  0  0  0  0  0  0  0  0  0  0
    0.0000    0.0000    0.0000 N   0  0  0  0  0  0  0  0  0  0  0  0
    0.0000    0.0000    0.0000 C   0  0  0  0  0  0  0  0  0  0  0  0
    0.0000    0.0000    0.0000 C   0  0  0  0  0  0  0  0  0  0  0  0
    0.0000    0.0000    0.0000 C   0  0  0  0  0  0  0  0  0  0  0  0
    0.0000    0.0000    0.0000 C   0  0  0  0  0  0  0  0  0  0  0  0
    0.0000    0.0000    0.0000 C   0  0  0  0  0  0  0  0  0  0  0  0
    0.0000    0.0000    0.0000 C   0  0  0  0  0  0  0  0  0  0  0  0
    0.0000    0.0000    0.0000 C   0  0  0  0  0  0  0  0  0  0  0  0
    0.0000    0.0000    0.0000 C   0  0  0  0  0  0  0  0  0  0  0  0
    0.0000    0.0000    0.0000 O   0  0  0  0  0  0  0  0  0  0  0  0
    0.0000    0.0000    0.0000 C   0  0  0  0  0  0  0  0  0  0  0  0
    0.0000    0.0000    0.0000 C   0  0  0  0  0  0  0  0  0  0  0  0
    0.0000    0.0000    0.0000 F   0  0  0  0  0  0  0  0  0  0  0  0
    0.0000    0.0000    0.0000 C   0  0  0  0  0  0  0  0  0  0  0  0
  1  2  1  0
  2  3  2  0
  3  4  1  0
  4  5  2  0
  5  6  1  0
  6  7  2  0
  7  8  1  0
  8  9  2  0
  9 10  1  0
 10 11  1  0
 11 12  1  0
 12 13  1  0
 13 14  1  0
 14 15  1  0
  8 16  1  0
 16 17  2  0
 17 18  1  0
 18 19  1  0
 18 20  2  0
 20 21  1  0
 21 22  1  0
 21 23  2  0
  7  2  1  0
 10  6  1  0
 15 11  1  0
 23 16  1  0
M  END
>  <pIC50>  (358) 
7.62

>  <ChEMBL_ID>  (358) 
CHEMBL1242199

>  <document_journal>  (358) 
Nat. Chem. Biol.

>  <bao_endpoint>  (358) 
BAO_0000190

>  <potential_duplicate>  (358) 
False

>  <uo_units>  (358) 
UO_0000065

>  <canonical_smiles>  (358) 
Nc1ncnc2c1c(nn2C3CCCC3)c4cc(O)cc(F)c4

>  <parent_molecule_chembl_id>  (358) 
CHEMBL1242199

>  <assay_type>  (358) 
B

>  <src_id>  (358) 
1

>  <ligand_efficiency>  (358) 
{u'le': u'0.45', u'bei': u'24.32', u'sei': u'8.48', u'lle': u'4.41'}

>  <standard_flag>  (358) 
True

>  <molecule_chembl_id>  (358) 
CHEMBL1242199

>  <target_organism>  (358) 
Homo sapiens

>  <standard_units>  (358) 
nM

>  <record_id>  (358) 
953313

>  <document_chembl_id>  (358) 
CHEMBL1240340

>  <bao_format>  (358) 
BAO_0000357

>  <data_validity_description>  (358) 
None

>  <activity_id>  (358) 
3442156

>  <standard_type>  (358) 
IC50

>  <target_chembl_id>  (358) 
CHEMBL1862

>  <data_validity_comment>  (358) 
None

>  <published_value>  (358) 
0.024

>  <document_year>  (358) 
2008

>  <target_pref_name>  (358) 
Tyrosine-protein kinase ABL

>  <assay_chembl_id>  (358) 
CHEMBL1243972

>  <standard_relation>  (358) 
=

>  <assay_description>  (358) 
Inhibition of recombinant c-Abl by radioactive phosphotransfer assay in presence of 10 uM ATP

>  <published_relation>  (358) 
=

>  <standard_value>  (358) 
24

>  <qudt_units>  (358) 
http://www.openphacts.org/units/Nanomolar

>  <target_tax_id>  (358) 
9606

>  <bao_label>  (358) 
single protein format

>  <published_units>  (358) 
uM

>  <pchembl_value>  (358) 
7.62

>  <published_type>  (358) 
IC50

>  <activity_comment>  (358) 
None

$$$$

     RDKit          

 22 24  0  0  0  0  0  0  0  0999 V2000
    0.0000    0.0000    0.0000 C   0  0  0  0  0  0  0  0  0  0  0  0
    0.0000    0.0000    0.0000 O   0  0  0  0  0  0  0  0  0  0  0  0
    0.0000    0.0000    0.0000 C   0  0  0  0  0  0  0  0  0  0  0  0
    0.0000    0.0000    0.0000 C   0  0  0  0  0  0  0  0  0  0  0  0
    0.0000    0.0000    0.0000 C   0  0  0  0  0  0  0  0  0  0  0  0
    0.0000    0.0000    0.0000 Br  0  0  0  0  0  0  0  0  0  0  0  0
    0.0000    0.0000    0.0000 C   0  0  0  0  0  0  0  0  0  0  0  0
    0.0000    0.0000    0.0000 C   0  0  0  0  0  0  0  0  0  0  0  0
    0.0000    0.0000    0.0000 C   0  0  0  0  0  0  0  0  0  0  0  0
    0.0000    0.0000    0.0000 C   0  0  0  0  0  0  0  0  0  0  0  0
    0.0000    0.0000    0.0000 N   0  0  0  0  0  0  0  0  0  0  0  0
    0.0000    0.0000    0.0000 N   0  0  0  0  0  0  0  0  0  0  0  0
    0.0000    0.0000    0.0000 C   0  0  0  0  0  0  0  0  0  0  0  0
    0.0000    0.0000    0.0000 C   0  0  0  0  0  0  0  0  0  0  0  0
    0.0000    0.0000    0.0000 C   0  0  0  0  0  0  0  0  0  0  0  0
    0.0000    0.0000    0.0000 C   0  0  0  0  0  0  0  0  0  0  0  0
    0.0000    0.0000    0.0000 N   0  0  0  0  0  0  0  0  0  0  0  0
    0.0000    0.0000    0.0000 C   0  0  0  0  0  0  0  0  0  0  0  0
    0.0000    0.0000    0.0000 N   0  0  0  0  0  0  0  0  0  0  0  0
    0.0000    0.0000    0.0000 C   0  0  0  0  0  0  0  0  0  0  0  0
    0.0000    0.0000    0.0000 N   0  0  0  0  0  0  0  0  0  0  0  0
    0.0000    0.0000    0.0000 C   0  0  0  0  0  0  0  0  0  0  0  0
  1  2  1  0
  2  3  1  0
  3  4  2  0
  4  5  1  0
  5  6  1  0
  5  7  2  0
  7  8  1  0
  8  9  2  0
  8 10  1  0
 10 11  2  0
 11 12  1  0
 12 13  1  0
 13 14  1  0
 13 15  1  0
 12 16  1  0
 16 17  2  0
 17 18  1  0
 18 19  2  0
 19 20  1  0
 20 21  1  0
 20 22  2  0
  9  3  1  0
 22 10  1  0
 22 16  1  0
M  END
>  <pIC50>  (359) 
5.82

>  <ChEMBL_ID>  (359) 
CHEMBL1242200

>  <document_journal>  (359) 
Nat. Chem. Biol.

>  <bao_endpoint>  (359) 
BAO_0000190

>  <potential_duplicate>  (359) 
False

>  <uo_units>  (359) 
UO_0000065

>  <canonical_smiles>  (359) 
COc1cc(Br)cc(c1)c2nn(C(C)C)c3ncnc(N)c23

>  <parent_molecule_chembl_id>  (359) 
CHEMBL1242200

>  <assay_type>  (359) 
B

>  <src_id>  (359) 
1

>  <ligand_efficiency>  (359) 
{u'le': u'0.36', u'bei': u'16.08', u'sei': u'7.39', u'lle': u'2.52'}

>  <standard_flag>  (359) 
True

>  <molecule_chembl_id>  (359) 
CHEMBL1242200

>  <target_organism>  (359) 
Homo sapiens

>  <standard_units>  (359) 
nM

>  <record_id>  (359) 
953314

>  <document_chembl_id>  (359) 
CHEMBL1240340

>  <bao_format>  (359) 
BAO_0000357

>  <data_validity_description>  (359) 
None

>  <activity_id>  (359) 
3442170

>  <standard_type>  (359) 
IC50

>  <target_chembl_id>  (359) 
CHEMBL1862

>  <data_validity_comment>  (359) 
None

>  <published_value>  (359) 
1.5

>  <document_year>  (359) 
2008

>  <target_pref_name>  (359) 
Tyrosine-protein kinase ABL

>  <assay_chembl_id>  (359) 
CHEMBL1243972

>  <standard_relation>  (359) 
=

>  <assay_description>  (359) 
Inhibition of recombinant c-Abl by radioactive phosphotransfer assay in presence of 10 uM ATP

>  <published_relation>  (359) 
=

>  <standard_value>  (359) 
1500

>  <qudt_units>  (359) 
http://www.openphacts.org/units/Nanomolar

>  <target_tax_id>  (359) 
9606

>  <bao_label>  (359) 
single protein format

>  <published_units>  (359) 
uM

>  <pchembl_value>  (359) 
5.82

>  <published_type>  (359) 
IC50

>  <activity_comment>  (359) 
None

$$$$

     RDKit          

 25 27  0  0  0  0  0  0  0  0999 V2000
    0.0000    0.0000    0.0000 C   0  0  0  0  0  0  0  0  0  0  0  0
    0.0000    0.0000    0.0000 O   0  0  0  0  0  0  0  0  0  0  0  0
    0.0000    0.0000    0.0000 C   0  0  0  0  0  0  0  0  0  0  0  0
    0.0000    0.0000    0.0000 C   0  0  0  0  0  0  0  0  0  0  0  0
    0.0000    0.0000    0.0000 C   0  0  0  0  0  0  0  0  0  0  0  0
    0.0000    0.0000    0.0000 C   0  0  0  0  0  0  0  0  0  0  0  0
    0.0000    0.0000    0.0000 C   0  0  0  0  0  0  0  0  0  0  0  0
    0.0000    0.0000    0.0000 C   0  0  0  0  0  0  0  0  0  0  0  0
    0.0000    0.0000    0.0000 O   0  0  0  0  0  0  0  0  0  0  0  0
    0.0000    0.0000    0.0000 C   0  0  0  0  0  0  0  0  0  0  0  0
    0.0000    0.0000    0.0000 C   0  0  0  0  0  0  0  0  0  0  0  0
    0.0000    0.0000    0.0000 N   0  0  0  0  0  0  0  0  0  0  0  0
    0.0000    0.0000    0.0000 N   0  0  0  0  0  0  0  0  0  0  0  0
    0.0000    0.0000    0.0000 C   0  0  0  0  0  0  0  0  0  0  0  0
    0.0000    0.0000    0.0000 C   0  0  0  0  0  0  0  0  0  0  0  0
    0.0000    0.0000    0.0000 C   0  0  0  0  0  0  0  0  0  0  0  0
    0.0000    0.0000    0.0000 C   0  0  0  0  0  0  0  0  0  0  0  0
    0.0000    0.0000    0.0000 O   0  0  0  0  0  0  0  0  0  0  0  0
    0.0000    0.0000    0.0000 C   0  0  0  0  0  0  0  0  0  0  0  0
    0.0000    0.0000    0.0000 N   0  0  0  0  0  0  0  0  0  0  0  0
    0.0000    0.0000    0.0000 C   0  0  0  0  0  0  0  0  0  0  0  0
    0.0000    0.0000    0.0000 N   0  0  0  0  0  0  0  0  0  0  0  0
    0.0000    0.0000    0.0000 C   0  0  0  0  0  0  0  0  0  0  0  0
    0.0000    0.0000    0.0000 N   0  0  0  0  0  0  0  0  0  0  0  0
    0.0000    0.0000    0.0000 C   0  0  0  0  0  0  0  0  0  0  0  0
  1  2  1  0
  2  3  1  0
  3  4  2  0
  4  5  1  0
  5  6  2  0
  6  7  1  0
  7  8  2  0
  8  9  1  0
  9 10  1  0
  6 11  1  0
 11 12  2  0
 12 13  1  0
 13 14  1  0
 14 15  1  0
 15 16  1  0
 15 17  1  0
 17 18  1  0
 13 19  1  0
 19 20  2  0
 20 21  1  0
 21 22  2  0
 22 23  1  0
 23 24  1  0
 23 25  2  0
  8  3  1  0
 25 11  1  0
 25 19  1  0
M  END
>  <pIC50>  (360) 
4.92

>  <ChEMBL_ID>  (360) 
CHEMBL1242380

>  <document_journal>  (360) 
Nat. Chem. Biol.

>  <bao_endpoint>  (360) 
BAO_0000190

>  <potential_duplicate>  (360) 
False

>  <uo_units>  (360) 
UO_0000065

>  <canonical_smiles>  (360) 
COc1ccc(cc1OC)c2nn(C[C@H](C)CO)c3ncnc(N)c23

>  <parent_molecule_chembl_id>  (360) 
CHEMBL1242380

>  <assay_type>  (360) 
B

>  <src_id>  (360) 
1

>  <ligand_efficiency>  (360) 
{u'le': u'0.27', u'bei': u'14.33', u'sei': u'4.54', u'lle': u'3.14'}

>  <standard_flag>  (360) 
True

>  <molecule_chembl_id>  (360) 
CHEMBL1242380

>  <target_organism>  (360) 
Homo sapiens

>  <standard_units>  (360) 
nM

>  <record_id>  (360) 
953578

>  <document_chembl_id>  (360) 
CHEMBL1240340

>  <bao_format>  (360) 
BAO_0000357

>  <data_validity_description>  (360) 
None

>  <activity_id>  (360) 
3442180

>  <standard_type>  (360) 
IC50

>  <target_chembl_id>  (360) 
CHEMBL1862

>  <data_validity_comment>  (360) 
None

>  <published_value>  (360) 
12

>  <document_year>  (360) 
2008

>  <target_pref_name>  (360) 
Tyrosine-protein kinase ABL

>  <assay_chembl_id>  (360) 
CHEMBL1243972

>  <standard_relation>  (360) 
=

>  <assay_description>  (360) 
Inhibition of recombinant c-Abl by radioactive phosphotransfer assay in presence of 10 uM ATP

>  <published_relation>  (360) 
=

>  <standard_value>  (360) 
12000

>  <qudt_units>  (360) 
http://www.openphacts.org/units/Nanomolar

>  <target_tax_id>  (360) 
9606

>  <bao_label>  (360) 
single protein format

>  <published_units>  (360) 
uM

>  <pchembl_value>  (360) 
4.92

>  <published_type>  (360) 
IC50

>  <activity_comment>  (360) 
None

$$$$

     RDKit          

 25 27  0  0  0  0  0  0  0  0999 V2000
    0.0000    0.0000    0.0000 C   0  0  0  0  0  0  0  0  0  0  0  0
    0.0000    0.0000    0.0000 O   0  0  0  0  0  0  0  0  0  0  0  0
    0.0000    0.0000    0.0000 C   0  0  0  0  0  0  0  0  0  0  0  0
    0.0000    0.0000    0.0000 C   0  0  0  0  0  0  0  0  0  0  0  0
    0.0000    0.0000    0.0000 C   0  0  0  0  0  0  0  0  0  0  0  0
    0.0000    0.0000    0.0000 C   0  0  0  0  0  0  0  0  0  0  0  0
    0.0000    0.0000    0.0000 C   0  0  0  0  0  0  0  0  0  0  0  0
    0.0000    0.0000    0.0000 C   0  0  0  0  0  0  0  0  0  0  0  0
    0.0000    0.0000    0.0000 O   0  0  0  0  0  0  0  0  0  0  0  0
    0.0000    0.0000    0.0000 C   0  0  0  0  0  0  0  0  0  0  0  0
    0.0000    0.0000    0.0000 C   0  0  0  0  0  0  0  0  0  0  0  0
    0.0000    0.0000    0.0000 N   0  0  0  0  0  0  0  0  0  0  0  0
    0.0000    0.0000    0.0000 N   0  0  0  0  0  0  0  0  0  0  0  0
    0.0000    0.0000    0.0000 C   0  0  0  0  0  0  0  0  0  0  0  0
    0.0000    0.0000    0.0000 C   0  0  0  0  0  0  0  0  0  0  0  0
    0.0000    0.0000    0.0000 C   0  0  0  0  0  0  0  0  0  0  0  0
    0.0000    0.0000    0.0000 C   0  0  0  0  0  0  0  0  0  0  0  0
    0.0000    0.0000    0.0000 O   0  0  0  0  0  0  0  0  0  0  0  0
    0.0000    0.0000    0.0000 C   0  0  0  0  0  0  0  0  0  0  0  0
    0.0000    0.0000    0.0000 N   0  0  0  0  0  0  0  0  0  0  0  0
    0.0000    0.0000    0.0000 C   0  0  0  0  0  0  0  0  0  0  0  0
    0.0000    0.0000    0.0000 N   0  0  0  0  0  0  0  0  0  0  0  0
    0.0000    0.0000    0.0000 C   0  0  0  0  0  0  0  0  0  0  0  0
    0.0000    0.0000    0.0000 N   0  0  0  0  0  0  0  0  0  0  0  0
    0.0000    0.0000    0.0000 C   0  0  0  0  0  0  0  0  0  0  0  0
  1  2  1  0
  2  3  1  0
  3  4  2  0
  4  5  1  0
  5  6  2  0
  6  7  1  0
  7  8  2  0
  8  9  1  0
  9 10  1  0
  6 11  1  0
 11 12  2  0
 12 13  1  0
 13 14  1  0
 14 15  1  0
 15 16  1  0
 15 17  1  0
 17 18  1  0
 13 19  1  0
 19 20  2  0
 20 21  1  0
 21 22  2  0
 22 23  1  0
 23 24  1  0
 23 25  2  0
  8  3  1  0
 25 11  1  0
 25 19  1  0
M  END
>  <pIC50>  (361) 
5.19

>  <ChEMBL_ID>  (361) 
CHEMBL1242381

>  <document_journal>  (361) 
Nat. Chem. Biol.

>  <bao_endpoint>  (361) 
BAO_0000190

>  <potential_duplicate>  (361) 
False

>  <uo_units>  (361) 
UO_0000065

>  <canonical_smiles>  (361) 
COc1ccc(cc1OC)c2nn(C[C@@H](C)CO)c3ncnc(N)c23

>  <parent_molecule_chembl_id>  (361) 
CHEMBL1242381

>  <assay_type>  (361) 
B

>  <src_id>  (361) 
1

>  <ligand_efficiency>  (361) 
{u'le': u'0.28', u'bei': u'15.13', u'sei': u'4.8', u'lle': u'3.41'}

>  <standard_flag>  (361) 
True

>  <molecule_chembl_id>  (361) 
CHEMBL1242381

>  <target_organism>  (361) 
Homo sapiens

>  <standard_units>  (361) 
nM

>  <record_id>  (361) 
953579

>  <document_chembl_id>  (361) 
CHEMBL1240340

>  <bao_format>  (361) 
BAO_0000357

>  <data_validity_description>  (361) 
None

>  <activity_id>  (361) 
3442194

>  <standard_type>  (361) 
IC50

>  <target_chembl_id>  (361) 
CHEMBL1862

>  <data_validity_comment>  (361) 
None

>  <published_value>  (361) 
6.4

>  <document_year>  (361) 
2008

>  <target_pref_name>  (361) 
Tyrosine-protein kinase ABL

>  <assay_chembl_id>  (361) 
CHEMBL1243972

>  <standard_relation>  (361) 
=

>  <assay_description>  (361) 
Inhibition of recombinant c-Abl by radioactive phosphotransfer assay in presence of 10 uM ATP

>  <published_relation>  (361) 
=

>  <standard_value>  (361) 
6400

>  <qudt_units>  (361) 
http://www.openphacts.org/units/Nanomolar

>  <target_tax_id>  (361) 
9606

>  <bao_label>  (361) 
single protein format

>  <published_units>  (361) 
uM

>  <pchembl_value>  (361) 
5.19

>  <published_type>  (361) 
IC50

>  <activity_comment>  (361) 
None

$$$$

     RDKit          

 25 28  0  0  0  0  0  0  0  0999 V2000
    0.0000    0.0000    0.0000 C   0  0  0  0  0  0  0  0  0  0  0  0
    0.0000    0.0000    0.0000 O   0  0  0  0  0  0  0  0  0  0  0  0
    0.0000    0.0000    0.0000 C   0  0  0  0  0  0  0  0  0  0  0  0
    0.0000    0.0000    0.0000 C   0  0  0  0  0  0  0  0  0  0  0  0
    0.0000    0.0000    0.0000 C   0  0  0  0  0  0  0  0  0  0  0  0
    0.0000    0.0000    0.0000 C   0  0  0  0  0  0  0  0  0  0  0  0
    0.0000    0.0000    0.0000 C   0  0  0  0  0  0  0  0  0  0  0  0
    0.0000    0.0000    0.0000 C   0  0  0  0  0  0  0  0  0  0  0  0
    0.0000    0.0000    0.0000 O   0  0  0  0  0  0  0  0  0  0  0  0
    0.0000    0.0000    0.0000 C   0  0  0  0  0  0  0  0  0  0  0  0
    0.0000    0.0000    0.0000 C   0  0  0  0  0  0  0  0  0  0  0  0
    0.0000    0.0000    0.0000 N   0  0  0  0  0  0  0  0  0  0  0  0
    0.0000    0.0000    0.0000 N   0  0  0  0  0  0  0  0  0  0  0  0
    0.0000    0.0000    0.0000 C   0  0  0  0  0  0  0  0  0  0  0  0
    0.0000    0.0000    0.0000 C   0  0  0  0  0  0  0  0  0  0  0  0
    0.0000    0.0000    0.0000 C   0  0  0  0  0  0  0  0  0  0  0  0
    0.0000    0.0000    0.0000 C   0  0  0  0  0  0  0  0  0  0  0  0
    0.0000    0.0000    0.0000 C   0  0  0  0  0  0  0  0  0  0  0  0
    0.0000    0.0000    0.0000 C   0  0  0  0  0  0  0  0  0  0  0  0
    0.0000    0.0000    0.0000 N   0  0  0  0  0  0  0  0  0  0  0  0
    0.0000    0.0000    0.0000 C   0  0  0  0  0  0  0  0  0  0  0  0
    0.0000    0.0000    0.0000 N   0  0  0  0  0  0  0  0  0  0  0  0
    0.0000    0.0000    0.0000 C   0  0  0  0  0  0  0  0  0  0  0  0
    0.0000    0.0000    0.0000 N   0  0  0  0  0  0  0  0  0  0  0  0
    0.0000    0.0000    0.0000 C   0  0  0  0  0  0  0  0  0  0  0  0
  1  2  1  0
  2  3  1  0
  3  4  2  0
  4  5  1  0
  5  6  2  0
  6  7  1  0
  7  8  2  0
  8  9  1  0
  9 10  1  0
  6 11  1  0
 11 12  2  0
 12 13  1  0
 13 14  1  0
 14 15  1  0
 15 16  1  0
 16 17  1  0
 17 18  1  0
 13 19  1  0
 19 20  2  0
 20 21  1  0
 21 22  2  0
 22 23  1  0
 23 24  1  0
 23 25  2  0
  8  3  1  0
 25 11  1  0
 18 14  1  0
 25 19  1  0
M  END
>  <pIC50>  (362) 
6.0

>  <ChEMBL_ID>  (362) 
CHEMBL1240553

>  <document_journal>  (362) 
Nat. Chem. Biol.

>  <bao_endpoint>  (362) 
BAO_0000190

>  <potential_duplicate>  (362) 
False

>  <uo_units>  (362) 
UO_0000065

>  <canonical_smiles>  (362) 
COc1ccc(cc1OC)c2nn(C3CCCC3)c4ncnc(N)c24

>  <parent_molecule_chembl_id>  (362) 
CHEMBL1240553

>  <assay_type>  (362) 
B

>  <src_id>  (362) 
1

>  <ligand_efficiency>  (362) 
{u'le': u'0.33', u'bei': u'17.68', u'sei': u'6.81', u'lle': u'2.79'}

>  <standard_flag>  (362) 
True

>  <molecule_chembl_id>  (362) 
CHEMBL1240553

>  <target_organism>  (362) 
Homo sapiens

>  <standard_units>  (362) 
nM

>  <record_id>  (362) 
953705

>  <document_chembl_id>  (362) 
CHEMBL1240340

>  <bao_format>  (362) 
BAO_0000357

>  <data_validity_description>  (362) 
None

>  <activity_id>  (362) 
3442208

>  <standard_type>  (362) 
IC50

>  <target_chembl_id>  (362) 
CHEMBL1862

>  <data_validity_comment>  (362) 
None

>  <published_value>  (362) 
1

>  <document_year>  (362) 
2008

>  <target_pref_name>  (362) 
Tyrosine-protein kinase ABL

>  <assay_chembl_id>  (362) 
CHEMBL1243972

>  <standard_relation>  (362) 
=

>  <assay_description>  (362) 
Inhibition of recombinant c-Abl by radioactive phosphotransfer assay in presence of 10 uM ATP

>  <published_relation>  (362) 
=

>  <standard_value>  (362) 
1000

>  <qudt_units>  (362) 
http://www.openphacts.org/units/Nanomolar

>  <target_tax_id>  (362) 
9606

>  <bao_label>  (362) 
single protein format

>  <published_units>  (362) 
uM

>  <pchembl_value>  (362) 
6

>  <published_type>  (362) 
IC50

>  <activity_comment>  (362) 
None

$$$$

     RDKit          

 21 23  0  0  0  0  0  0  0  0999 V2000
    0.0000    0.0000    0.0000 C   0  0  0  0  0  0  0  0  0  0  0  0
    0.0000    0.0000    0.0000 C   0  0  0  0  0  0  0  0  0  0  0  0
    0.0000    0.0000    0.0000 O   0  0  0  0  0  0  0  0  0  0  0  0
    0.0000    0.0000    0.0000 C   0  0  0  0  0  0  0  0  0  0  0  0
    0.0000    0.0000    0.0000 C   0  0  0  0  0  0  0  0  0  0  0  0
    0.0000    0.0000    0.0000 C   0  0  0  0  0  0  0  0  0  0  0  0
    0.0000    0.0000    0.0000 C   0  0  0  0  0  0  0  0  0  0  0  0
    0.0000    0.0000    0.0000 C   0  0  0  0  0  0  0  0  0  0  0  0
    0.0000    0.0000    0.0000 C   0  0  0  0  0  0  0  0  0  0  0  0
    0.0000    0.0000    0.0000 O   0  0  0  0  0  0  0  0  0  0  0  0
    0.0000    0.0000    0.0000 C   0  0  0  0  0  0  0  0  0  0  0  0
    0.0000    0.0000    0.0000 C   0  0  0  0  0  0  0  0  0  0  0  0
    0.0000    0.0000    0.0000 N   0  0  0  0  0  0  0  0  0  0  0  0
    0.0000    0.0000    0.0000 N   0  0  0  0  0  0  0  0  0  0  0  0
    0.0000    0.0000    0.0000 C   0  0  0  0  0  0  0  0  0  0  0  0
    0.0000    0.0000    0.0000 N   0  0  0  0  0  0  0  0  0  0  0  0
    0.0000    0.0000    0.0000 C   0  0  0  0  0  0  0  0  0  0  0  0
    0.0000    0.0000    0.0000 N   0  0  0  0  0  0  0  0  0  0  0  0
    0.0000    0.0000    0.0000 C   0  0  0  0  0  0  0  0  0  0  0  0
    0.0000    0.0000    0.0000 N   0  0  0  0  0  0  0  0  0  0  0  0
    0.0000    0.0000    0.0000 C   0  0  0  0  0  0  0  0  0  0  0  0
  1  2  1  0
  2  3  1  0
  3  4  1  0
  4  5  2  0
  5  6  1  0
  6  7  2  0
  7  8  1  0
  8  9  2  0
  9 10  1  0
 10 11  1  0
  7 12  1  0
 12 13  2  0
 13 14  1  0
 14 15  1  0
 15 16  2  0
 16 17  1  0
 17 18  2  0
 18 19  1  0
 19 20  1  0
 19 21  2  0
  9  4  1  0
 21 12  1  0
 21 15  1  0
M  END
>  <pIC50>  (363) 
5.21

>  <ChEMBL_ID>  (363) 
CHEMBL1242471

>  <document_journal>  (363) 
Nat. Chem. Biol.

>  <bao_endpoint>  (363) 
BAO_0000190

>  <potential_duplicate>  (363) 
False

>  <uo_units>  (363) 
UO_0000065

>  <canonical_smiles>  (363) 
CCOc1ccc(cc1OC)c2n[nH]c3ncnc(N)c23

>  <parent_molecule_chembl_id>  (363) 
CHEMBL1242471

>  <assay_type>  (363) 
B

>  <src_id>  (363) 
1

>  <ligand_efficiency>  (363) 
{u'le': u'0.34', u'bei': u'18.27', u'sei': u'5.27', u'lle': u'3.26'}

>  <standard_flag>  (363) 
True

>  <molecule_chembl_id>  (363) 
CHEMBL1242471

>  <target_organism>  (363) 
Homo sapiens

>  <standard_units>  (363) 
nM

>  <record_id>  (363) 
953706

>  <document_chembl_id>  (363) 
CHEMBL1240340

>  <bao_format>  (363) 
BAO_0000357

>  <data_validity_description>  (363) 
None

>  <activity_id>  (363) 
3442222

>  <standard_type>  (363) 
IC50

>  <target_chembl_id>  (363) 
CHEMBL1862

>  <data_validity_comment>  (363) 
None

>  <published_value>  (363) 
6.15

>  <document_year>  (363) 
2008

>  <target_pref_name>  (363) 
Tyrosine-protein kinase ABL

>  <assay_chembl_id>  (363) 
CHEMBL1243972

>  <standard_relation>  (363) 
=

>  <assay_description>  (363) 
Inhibition of recombinant c-Abl by radioactive phosphotransfer assay in presence of 10 uM ATP

>  <published_relation>  (363) 
=

>  <standard_value>  (363) 
6150

>  <qudt_units>  (363) 
http://www.openphacts.org/units/Nanomolar

>  <target_tax_id>  (363) 
9606

>  <bao_label>  (363) 
single protein format

>  <published_units>  (363) 
uM

>  <pchembl_value>  (363) 
5.21

>  <published_type>  (363) 
IC50

>  <activity_comment>  (363) 
None

$$$$

     RDKit          

 24 26  0  0  0  0  0  0  0  0999 V2000
    0.0000    0.0000    0.0000 C   0  0  0  0  0  0  0  0  0  0  0  0
    0.0000    0.0000    0.0000 C   0  0  0  0  0  0  0  0  0  0  0  0
    0.0000    0.0000    0.0000 O   0  0  0  0  0  0  0  0  0  0  0  0
    0.0000    0.0000    0.0000 C   0  0  0  0  0  0  0  0  0  0  0  0
    0.0000    0.0000    0.0000 C   0  0  0  0  0  0  0  0  0  0  0  0
    0.0000    0.0000    0.0000 C   0  0  0  0  0  0  0  0  0  0  0  0
    0.0000    0.0000    0.0000 C   0  0  0  0  0  0  0  0  0  0  0  0
    0.0000    0.0000    0.0000 C   0  0  0  0  0  0  0  0  0  0  0  0
    0.0000    0.0000    0.0000 C   0  0  0  0  0  0  0  0  0  0  0  0
    0.0000    0.0000    0.0000 O   0  0  0  0  0  0  0  0  0  0  0  0
    0.0000    0.0000    0.0000 C   0  0  0  0  0  0  0  0  0  0  0  0
    0.0000    0.0000    0.0000 C   0  0  0  0  0  0  0  0  0  0  0  0
    0.0000    0.0000    0.0000 N   0  0  0  0  0  0  0  0  0  0  0  0
    0.0000    0.0000    0.0000 N   0  0  0  0  0  0  0  0  0  0  0  0
    0.0000    0.0000    0.0000 C   0  0  0  0  0  0  0  0  0  0  0  0
    0.0000    0.0000    0.0000 C   0  0  0  0  0  0  0  0  0  0  0  0
    0.0000    0.0000    0.0000 C   0  0  0  0  0  0  0  0  0  0  0  0
    0.0000    0.0000    0.0000 C   0  0  0  0  0  0  0  0  0  0  0  0
    0.0000    0.0000    0.0000 N   0  0  0  0  0  0  0  0  0  0  0  0
    0.0000    0.0000    0.0000 C   0  0  0  0  0  0  0  0  0  0  0  0
    0.0000    0.0000    0.0000 N   0  0  0  0  0  0  0  0  0  0  0  0
    0.0000    0.0000    0.0000 C   0  0  0  0  0  0  0  0  0  0  0  0
    0.0000    0.0000    0.0000 N   0  0  0  0  0  0  0  0  0  0  0  0
    0.0000    0.0000    0.0000 C   0  0  0  0  0  0  0  0  0  0  0  0
  1  2  1  0
  2  3  1  0
  3  4  1  0
  4  5  2  0
  5  6  1  0
  6  7  2  0
  7  8  1  0
  8  9  2  0
  9 10  1  0
 10 11  1  0
  7 12  1  0
 12 13  2  0
 13 14  1  0
 14 15  1  0
 15 16  1  0
 15 17  1  0
 14 18  1  0
 18 19  2  0
 19 20  1  0
 20 21  2  0
 21 22  1  0
 22 23  1  0
 22 24  2  0
  9  4  1  0
 24 12  1  0
 24 18  1  0
M  END
>  <pIC50>  (364) 
5.68

>  <ChEMBL_ID>  (364) 
CHEMBL1242472

>  <document_journal>  (364) 
Nat. Chem. Biol.

>  <bao_endpoint>  (364) 
BAO_0000190

>  <potential_duplicate>  (364) 
False

>  <uo_units>  (364) 
UO_0000065

>  <canonical_smiles>  (364) 
CCOc1ccc(cc1OC)c2nn(C(C)C)c3ncnc(N)c23

>  <parent_molecule_chembl_id>  (364) 
CHEMBL1242472

>  <assay_type>  (364) 
B

>  <src_id>  (364) 
1

>  <ligand_efficiency>  (364) 
{u'le': u'0.32', u'bei': u'17.34', u'sei': u'6.45', u'lle': u'2.8'}

>  <standard_flag>  (364) 
True

>  <molecule_chembl_id>  (364) 
CHEMBL1242472

>  <target_organism>  (364) 
Homo sapiens

>  <standard_units>  (364) 
nM

>  <record_id>  (364) 
953707

>  <document_chembl_id>  (364) 
CHEMBL1240340

>  <bao_format>  (364) 
BAO_0000357

>  <data_validity_description>  (364) 
None

>  <activity_id>  (364) 
3442236

>  <standard_type>  (364) 
IC50

>  <target_chembl_id>  (364) 
CHEMBL1862

>  <data_validity_comment>  (364) 
None

>  <published_value>  (364) 
2.1

>  <document_year>  (364) 
2008

>  <target_pref_name>  (364) 
Tyrosine-protein kinase ABL

>  <assay_chembl_id>  (364) 
CHEMBL1243972

>  <standard_relation>  (364) 
=

>  <assay_description>  (364) 
Inhibition of recombinant c-Abl by radioactive phosphotransfer assay in presence of 10 uM ATP

>  <published_relation>  (364) 
=

>  <standard_value>  (364) 
2100

>  <qudt_units>  (364) 
http://www.openphacts.org/units/Nanomolar

>  <target_tax_id>  (364) 
9606

>  <bao_label>  (364) 
single protein format

>  <published_units>  (364) 
uM

>  <pchembl_value>  (364) 
5.68

>  <published_type>  (364) 
IC50

>  <activity_comment>  (364) 
None

$$$$

     RDKit          

 24 26  0  0  0  0  0  0  0  0999 V2000
    0.0000    0.0000    0.0000 C   0  0  0  0  0  0  0  0  0  0  0  0
    0.0000    0.0000    0.0000 C   0  0  0  0  0  0  0  0  0  0  0  0
    0.0000    0.0000    0.0000 O   0  0  0  0  0  0  0  0  0  0  0  0
    0.0000    0.0000    0.0000 C   0  0  0  0  0  0  0  0  0  0  0  0
    0.0000    0.0000    0.0000 C   0  0  0  0  0  0  0  0  0  0  0  0
    0.0000    0.0000    0.0000 C   0  0  0  0  0  0  0  0  0  0  0  0
    0.0000    0.0000    0.0000 C   0  0  0  0  0  0  0  0  0  0  0  0
    0.0000    0.0000    0.0000 C   0  0  0  0  0  0  0  0  0  0  0  0
    0.0000    0.0000    0.0000 C   0  0  0  0  0  0  0  0  0  0  0  0
    0.0000    0.0000    0.0000 O   0  0  0  0  0  0  0  0  0  0  0  0
    0.0000    0.0000    0.0000 C   0  0  0  0  0  0  0  0  0  0  0  0
    0.0000    0.0000    0.0000 C   0  0  0  0  0  0  0  0  0  0  0  0
    0.0000    0.0000    0.0000 N   0  0  0  0  0  0  0  0  0  0  0  0
    0.0000    0.0000    0.0000 N   0  0  0  0  0  0  0  0  0  0  0  0
    0.0000    0.0000    0.0000 C   0  0  0  0  0  0  0  0  0  0  0  0
    0.0000    0.0000    0.0000 C   0  0  0  0  0  0  0  0  0  0  0  0
    0.0000    0.0000    0.0000 C   0  0  0  0  0  0  0  0  0  0  0  0
    0.0000    0.0000    0.0000 C   0  0  0  0  0  0  0  0  0  0  0  0
    0.0000    0.0000    0.0000 N   0  0  0  0  0  0  0  0  0  0  0  0
    0.0000    0.0000    0.0000 C   0  0  0  0  0  0  0  0  0  0  0  0
    0.0000    0.0000    0.0000 N   0  0  0  0  0  0  0  0  0  0  0  0
    0.0000    0.0000    0.0000 C   0  0  0  0  0  0  0  0  0  0  0  0
    0.0000    0.0000    0.0000 N   0  0  0  0  0  0  0  0  0  0  0  0
    0.0000    0.0000    0.0000 C   0  0  0  0  0  0  0  0  0  0  0  0
  1  2  1  0
  2  3  1  0
  3  4  1  0
  4  5  2  0
  5  6  1  0
  6  7  2  0
  7  8  1  0
  8  9  2  0
  9 10  1  0
 10 11  1  0
  7 12  1  0
 12 13  2  0
 13 14  1  0
 14 15  1  0
 15 16  1  0
 16 17  2  0
 14 18  1  0
 18 19  2  0
 19 20  1  0
 20 21  2  0
 21 22  1  0
 22 23  1  0
 22 24  2  0
  9  4  1  0
 24 12  1  0
 24 18  1  0
M  END
>  <pIC50>  (365) 
4.84

>  <ChEMBL_ID>  (365) 
CHEMBL1242569

>  <document_journal>  (365) 
Nat. Chem. Biol.

>  <bao_endpoint>  (365) 
BAO_0000190

>  <potential_duplicate>  (365) 
False

>  <uo_units>  (365) 
UO_0000065

>  <canonical_smiles>  (365) 
CCOc1ccc(cc1OC)c2nn(CC=C)c3ncnc(N)c23

>  <parent_molecule_chembl_id>  (365) 
CHEMBL1242569

>  <assay_type>  (365) 
B

>  <src_id>  (365) 
1

>  <ligand_efficiency>  (365) 
{u'le': u'0.28', u'bei': u'14.86', u'sei': u'5.49', u'lle': u'2.07'}

>  <standard_flag>  (365) 
True

>  <molecule_chembl_id>  (365) 
CHEMBL1242569

>  <target_organism>  (365) 
Homo sapiens

>  <standard_units>  (365) 
nM

>  <record_id>  (365) 
953833

>  <document_chembl_id>  (365) 
CHEMBL1240340

>  <bao_format>  (365) 
BAO_0000357

>  <data_validity_description>  (365) 
None

>  <activity_id>  (365) 
3442250

>  <standard_type>  (365) 
IC50

>  <target_chembl_id>  (365) 
CHEMBL1862

>  <data_validity_comment>  (365) 
None

>  <published_value>  (365) 
14.6

>  <document_year>  (365) 
2008

>  <target_pref_name>  (365) 
Tyrosine-protein kinase ABL

>  <assay_chembl_id>  (365) 
CHEMBL1243972

>  <standard_relation>  (365) 
=

>  <assay_description>  (365) 
Inhibition of recombinant c-Abl by radioactive phosphotransfer assay in presence of 10 uM ATP

>  <published_relation>  (365) 
=

>  <standard_value>  (365) 
14600

>  <qudt_units>  (365) 
http://www.openphacts.org/units/Nanomolar

>  <target_tax_id>  (365) 
9606

>  <bao_label>  (365) 
single protein format

>  <published_units>  (365) 
uM

>  <pchembl_value>  (365) 
4.84

>  <published_type>  (365) 
IC50

>  <activity_comment>  (365) 
None

$$$$

     RDKit          

 26 29  0  0  0  0  0  0  0  0999 V2000
    0.0000    0.0000    0.0000 C   0  0  0  0  0  0  0  0  0  0  0  0
    0.0000    0.0000    0.0000 C   0  0  0  0  0  0  0  0  0  0  0  0
    0.0000    0.0000    0.0000 O   0  0  0  0  0  0  0  0  0  0  0  0
    0.0000    0.0000    0.0000 C   0  0  0  0  0  0  0  0  0  0  0  0
    0.0000    0.0000    0.0000 C   0  0  0  0  0  0  0  0  0  0  0  0
    0.0000    0.0000    0.0000 C   0  0  0  0  0  0  0  0  0  0  0  0
    0.0000    0.0000    0.0000 C   0  0  0  0  0  0  0  0  0  0  0  0
    0.0000    0.0000    0.0000 C   0  0  0  0  0  0  0  0  0  0  0  0
    0.0000    0.0000    0.0000 C   0  0  0  0  0  0  0  0  0  0  0  0
    0.0000    0.0000    0.0000 O   0  0  0  0  0  0  0  0  0  0  0  0
    0.0000    0.0000    0.0000 C   0  0  0  0  0  0  0  0  0  0  0  0
    0.0000    0.0000    0.0000 C   0  0  0  0  0  0  0  0  0  0  0  0
    0.0000    0.0000    0.0000 N   0  0  0  0  0  0  0  0  0  0  0  0
    0.0000    0.0000    0.0000 N   0  0  0  0  0  0  0  0  0  0  0  0
    0.0000    0.0000    0.0000 C   0  0  0  0  0  0  0  0  0  0  0  0
    0.0000    0.0000    0.0000 C   0  0  0  0  0  0  0  0  0  0  0  0
    0.0000    0.0000    0.0000 C   0  0  0  0  0  0  0  0  0  0  0  0
    0.0000    0.0000    0.0000 C   0  0  0  0  0  0  0  0  0  0  0  0
    0.0000    0.0000    0.0000 C   0  0  0  0  0  0  0  0  0  0  0  0
    0.0000    0.0000    0.0000 C   0  0  0  0  0  0  0  0  0  0  0  0
    0.0000    0.0000    0.0000 N   0  0  0  0  0  0  0  0  0  0  0  0
    0.0000    0.0000    0.0000 C   0  0  0  0  0  0  0  0  0  0  0  0
    0.0000    0.0000    0.0000 N   0  0  0  0  0  0  0  0  0  0  0  0
    0.0000    0.0000    0.0000 C   0  0  0  0  0  0  0  0  0  0  0  0
    0.0000    0.0000    0.0000 N   0  0  0  0  0  0  0  0  0  0  0  0
    0.0000    0.0000    0.0000 C   0  0  0  0  0  0  0  0  0  0  0  0
  1  2  1  0
  2  3  1  0
  3  4  1  0
  4  5  2  0
  5  6  1  0
  6  7  2  0
  7  8  1  0
  8  9  2  0
  9 10  1  0
 10 11  1  0
  7 12  1  0
 12 13  2  0
 13 14  1  0
 14 15  1  0
 15 16  1  0
 16 17  1  0
 17 18  1  0
 18 19  1  0
 14 20  1  0
 20 21  2  0
 21 22  1  0
 22 23  2  0
 23 24  1  0
 24 25  1  0
 24 26  2  0
  9  4  1  0
 26 12  1  0
 19 15  1  0
 26 20  1  0
M  END
>  <pIC50>  (366) 
6.07

>  <ChEMBL_ID>  (366) 
CHEMBL1240554

>  <document_journal>  (366) 
Nat. Chem. Biol.

>  <bao_endpoint>  (366) 
BAO_0000190

>  <potential_duplicate>  (366) 
False

>  <uo_units>  (366) 
UO_0000065

>  <canonical_smiles>  (366) 
CCOc1ccc(cc1OC)c2nn(C3CCCC3)c4ncnc(N)c24

>  <parent_molecule_chembl_id>  (366) 
CHEMBL1240554

>  <assay_type>  (366) 
B

>  <src_id>  (366) 
1

>  <ligand_efficiency>  (366) 
{u'le': u'0.32', u'bei': u'17.18', u'sei': u'6.89', u'lle': u'2.51'}

>  <standard_flag>  (366) 
True

>  <molecule_chembl_id>  (366) 
CHEMBL1240554

>  <target_organism>  (366) 
Homo sapiens

>  <standard_units>  (366) 
nM

>  <record_id>  (366) 
953834

>  <document_chembl_id>  (366) 
CHEMBL1240340

>  <bao_format>  (366) 
BAO_0000357

>  <data_validity_description>  (366) 
None

>  <activity_id>  (366) 
3442264

>  <standard_type>  (366) 
IC50

>  <target_chembl_id>  (366) 
CHEMBL1862

>  <data_validity_comment>  (366) 
None

>  <published_value>  (366) 
0.85

>  <document_year>  (366) 
2008

>  <target_pref_name>  (366) 
Tyrosine-protein kinase ABL

>  <assay_chembl_id>  (366) 
CHEMBL1243972

>  <standard_relation>  (366) 
=

>  <assay_description>  (366) 
Inhibition of recombinant c-Abl by radioactive phosphotransfer assay in presence of 10 uM ATP

>  <published_relation>  (366) 
=

>  <standard_value>  (366) 
850

>  <qudt_units>  (366) 
http://www.openphacts.org/units/Nanomolar

>  <target_tax_id>  (366) 
9606

>  <bao_label>  (366) 
single protein format

>  <published_units>  (366) 
uM

>  <pchembl_value>  (366) 
6.07

>  <published_type>  (366) 
IC50

>  <activity_comment>  (366) 
None

$$$$

     RDKit          

 27 30  0  0  0  0  0  0  0  0999 V2000
    0.0000    0.0000    0.0000 C   0  0  0  0  0  0  0  0  0  0  0  0
    0.0000    0.0000    0.0000 C   0  0  0  0  0  0  0  0  0  0  0  0
    0.0000    0.0000    0.0000 O   0  0  0  0  0  0  0  0  0  0  0  0
    0.0000    0.0000    0.0000 C   0  0  0  0  0  0  0  0  0  0  0  0
    0.0000    0.0000    0.0000 C   0  0  0  0  0  0  0  0  0  0  0  0
    0.0000    0.0000    0.0000 C   0  0  0  0  0  0  0  0  0  0  0  0
    0.0000    0.0000    0.0000 C   0  0  0  0  0  0  0  0  0  0  0  0
    0.0000    0.0000    0.0000 C   0  0  0  0  0  0  0  0  0  0  0  0
    0.0000    0.0000    0.0000 C   0  0  0  0  0  0  0  0  0  0  0  0
    0.0000    0.0000    0.0000 O   0  0  0  0  0  0  0  0  0  0  0  0
    0.0000    0.0000    0.0000 C   0  0  0  0  0  0  0  0  0  0  0  0
    0.0000    0.0000    0.0000 C   0  0  0  0  0  0  0  0  0  0  0  0
    0.0000    0.0000    0.0000 N   0  0  0  0  0  0  0  0  0  0  0  0
    0.0000    0.0000    0.0000 N   0  0  0  0  0  0  0  0  0  0  0  0
    0.0000    0.0000    0.0000 C   0  0  0  0  0  0  0  0  0  0  0  0
    0.0000    0.0000    0.0000 C   0  0  0  0  0  0  0  0  0  0  0  0
    0.0000    0.0000    0.0000 C   0  0  0  0  0  0  0  0  0  0  0  0
    0.0000    0.0000    0.0000 C   0  0  0  0  0  0  0  0  0  0  0  0
    0.0000    0.0000    0.0000 C   0  0  0  0  0  0  0  0  0  0  0  0
    0.0000    0.0000    0.0000 C   0  0  0  0  0  0  0  0  0  0  0  0
    0.0000    0.0000    0.0000 C   0  0  0  0  0  0  0  0  0  0  0  0
    0.0000    0.0000    0.0000 N   0  0  0  0  0  0  0  0  0  0  0  0
    0.0000    0.0000    0.0000 C   0  0  0  0  0  0  0  0  0  0  0  0
    0.0000    0.0000    0.0000 N   0  0  0  0  0  0  0  0  0  0  0  0
    0.0000    0.0000    0.0000 C   0  0  0  0  0  0  0  0  0  0  0  0
    0.0000    0.0000    0.0000 N   0  0  0  0  0  0  0  0  0  0  0  0
    0.0000    0.0000    0.0000 C   0  0  0  0  0  0  0  0  0  0  0  0
  1  2  1  0
  2  3  1  0
  3  4  1  0
  4  5  2  0
  5  6  1  0
  6  7  2  0
  7  8  1  0
  8  9  2  0
  9 10  1  0
 10 11  1  0
  7 12  1  0
 12 13  2  0
 13 14  1  0
 14 15  1  0
 15 16  1  0
 16 17  1  0
 17 18  1  0
 18 19  1  0
 19 20  1  0
 14 21  1  0
 21 22  2  0
 22 23  1  0
 23 24  2  0
 24 25  1  0
 25 26  1  0
 25 27  2  0
  9  4  1  0
 27 12  1  0
 20 15  1  0
 27 21  1  0
M  END
>  <pIC50>  (367) 
5.22

>  <ChEMBL_ID>  (367) 
CHEMBL1242659

>  <document_journal>  (367) 
Nat. Chem. Biol.

>  <bao_endpoint>  (367) 
BAO_0000190

>  <potential_duplicate>  (367) 
False

>  <uo_units>  (367) 
UO_0000065

>  <canonical_smiles>  (367) 
CCOc1ccc(cc1OC)c2nn(C3CCCCC3)c4ncnc(N)c24

>  <parent_molecule_chembl_id>  (367) 
CHEMBL1242659

>  <assay_type>  (367) 
B

>  <src_id>  (367) 
1

>  <ligand_efficiency>  (367) 
{u'le': u'0.26', u'bei': u'14.2', u'sei': u'5.92', u'lle': u'1.21'}

>  <standard_flag>  (367) 
True

>  <molecule_chembl_id>  (367) 
CHEMBL1242659

>  <target_organism>  (367) 
Homo sapiens

>  <standard_units>  (367) 
nM

>  <record_id>  (367) 
953961

>  <document_chembl_id>  (367) 
CHEMBL1240340

>  <bao_format>  (367) 
BAO_0000357

>  <data_validity_description>  (367) 
None

>  <activity_id>  (367) 
3442278

>  <standard_type>  (367) 
IC50

>  <target_chembl_id>  (367) 
CHEMBL1862

>  <data_validity_comment>  (367) 
None

>  <published_value>  (367) 
6.05

>  <document_year>  (367) 
2008

>  <target_pref_name>  (367) 
Tyrosine-protein kinase ABL

>  <assay_chembl_id>  (367) 
CHEMBL1243972

>  <standard_relation>  (367) 
=

>  <assay_description>  (367) 
Inhibition of recombinant c-Abl by radioactive phosphotransfer assay in presence of 10 uM ATP

>  <published_relation>  (367) 
=

>  <standard_value>  (367) 
6050

>  <qudt_units>  (367) 
http://www.openphacts.org/units/Nanomolar

>  <target_tax_id>  (367) 
9606

>  <bao_label>  (367) 
single protein format

>  <published_units>  (367) 
uM

>  <pchembl_value>  (367) 
5.22

>  <published_type>  (367) 
IC50

>  <activity_comment>  (367) 
None

$$$$

     RDKit          

 25 27  0  0  0  0  0  0  0  0999 V2000
    0.0000    0.0000    0.0000 C   0  0  0  0  0  0  0  0  0  0  0  0
    0.0000    0.0000    0.0000 O   0  0  0  0  0  0  0  0  0  0  0  0
    0.0000    0.0000    0.0000 C   0  0  0  0  0  0  0  0  0  0  0  0
    0.0000    0.0000    0.0000 C   0  0  0  0  0  0  0  0  0  0  0  0
    0.0000    0.0000    0.0000 C   0  0  0  0  0  0  0  0  0  0  0  0
    0.0000    0.0000    0.0000 C   0  0  0  0  0  0  0  0  0  0  0  0
    0.0000    0.0000    0.0000 C   0  0  0  0  0  0  0  0  0  0  0  0
    0.0000    0.0000    0.0000 O   0  0  0  0  0  0  0  0  0  0  0  0
    0.0000    0.0000    0.0000 C   0  0  0  0  0  0  0  0  0  0  0  0
    0.0000    0.0000    0.0000 C   0  0  0  0  0  0  0  0  0  0  0  0
    0.0000    0.0000    0.0000 O   0  0  0  0  0  0  0  0  0  0  0  0
    0.0000    0.0000    0.0000 C   0  0  0  0  0  0  0  0  0  0  0  0
    0.0000    0.0000    0.0000 C   0  0  0  0  0  0  0  0  0  0  0  0
    0.0000    0.0000    0.0000 N   0  0  0  0  0  0  0  0  0  0  0  0
    0.0000    0.0000    0.0000 N   0  0  0  0  0  0  0  0  0  0  0  0
    0.0000    0.0000    0.0000 C   0  0  0  0  0  0  0  0  0  0  0  0
    0.0000    0.0000    0.0000 C   0  0  0  0  0  0  0  0  0  0  0  0
    0.0000    0.0000    0.0000 C   0  0  0  0  0  0  0  0  0  0  0  0
    0.0000    0.0000    0.0000 C   0  0  0  0  0  0  0  0  0  0  0  0
    0.0000    0.0000    0.0000 N   0  0  0  0  0  0  0  0  0  0  0  0
    0.0000    0.0000    0.0000 C   0  0  0  0  0  0  0  0  0  0  0  0
    0.0000    0.0000    0.0000 N   0  0  0  0  0  0  0  0  0  0  0  0
    0.0000    0.0000    0.0000 C   0  0  0  0  0  0  0  0  0  0  0  0
    0.0000    0.0000    0.0000 N   0  0  0  0  0  0  0  0  0  0  0  0
    0.0000    0.0000    0.0000 C   0  0  0  0  0  0  0  0  0  0  0  0
  1  2  1  0
  2  3  1  0
  3  4  2  0
  4  5  1  0
  5  6  2  0
  6  7  1  0
  7  8  1  0
  8  9  1  0
  7 10  2  0
 10 11  1  0
 11 12  1  0
  5 13  1  0
 13 14  2  0
 14 15  1  0
 15 16  1  0
 16 17  1  0
 16 18  1  0
 15 19  1  0
 19 20  2  0
 20 21  1  0
 21 22  2  0
 22 23  1  0
 23 24  1  0
 23 25  2  0
 10  3  1  0
 25 13  1  0
 25 19  1  0
M  END
>  <pIC50>  (368) 
6.08

>  <ChEMBL_ID>  (368) 
CHEMBL1242660

>  <document_journal>  (368) 
Nat. Chem. Biol.

>  <bao_endpoint>  (368) 
BAO_0000190

>  <potential_duplicate>  (368) 
False

>  <uo_units>  (368) 
UO_0000065

>  <canonical_smiles>  (368) 
COc1cc(cc(OC)c1OC)c2nn(C(C)C)c3ncnc(N)c23

>  <parent_molecule_chembl_id>  (368) 
CHEMBL1242660

>  <assay_type>  (368) 
B

>  <src_id>  (368) 
1

>  <ligand_efficiency>  (368) 
{u'le': u'0.33', u'bei': u'17.71', u'sei': u'6.25', u'lle': u'3.56'}

>  <standard_flag>  (368) 
True

>  <molecule_chembl_id>  (368) 
CHEMBL1242660

>  <target_organism>  (368) 
Homo sapiens

>  <standard_units>  (368) 
nM

>  <record_id>  (368) 
953962

>  <document_chembl_id>  (368) 
CHEMBL1240340

>  <bao_format>  (368) 
BAO_0000357

>  <data_validity_description>  (368) 
None

>  <activity_id>  (368) 
3442292

>  <standard_type>  (368) 
IC50

>  <target_chembl_id>  (368) 
CHEMBL1862

>  <data_validity_comment>  (368) 
None

>  <published_value>  (368) 
0.83

>  <document_year>  (368) 
2008

>  <target_pref_name>  (368) 
Tyrosine-protein kinase ABL

>  <assay_chembl_id>  (368) 
CHEMBL1243972

>  <standard_relation>  (368) 
=

>  <assay_description>  (368) 
Inhibition of recombinant c-Abl by radioactive phosphotransfer assay in presence of 10 uM ATP

>  <published_relation>  (368) 
=

>  <standard_value>  (368) 
830

>  <qudt_units>  (368) 
http://www.openphacts.org/units/Nanomolar

>  <target_tax_id>  (368) 
9606

>  <bao_label>  (368) 
single protein format

>  <published_units>  (368) 
uM

>  <pchembl_value>  (368) 
6.08

>  <published_type>  (368) 
IC50

>  <activity_comment>  (368) 
None

$$$$

     RDKit          

 23 25  0  0  0  0  0  0  0  0999 V2000
    0.0000    0.0000    0.0000 C   0  0  0  0  0  0  0  0  0  0  0  0
    0.0000    0.0000    0.0000 O   0  0  0  0  0  0  0  0  0  0  0  0
    0.0000    0.0000    0.0000 C   0  0  0  0  0  0  0  0  0  0  0  0
    0.0000    0.0000    0.0000 C   0  0  0  0  0  0  0  0  0  0  0  0
    0.0000    0.0000    0.0000 C   0  0  0  0  0  0  0  0  0  0  0  0
    0.0000    0.0000    0.0000 C   0  0  0  0  0  0  0  0  0  0  0  0
    0.0000    0.0000    0.0000 C   0  0  0  0  0  0  0  0  0  0  0  0
    0.0000    0.0000    0.0000 C   0  0  0  0  0  0  0  0  0  0  0  0
    0.0000    0.0000    0.0000 O   0  0  0  0  0  0  0  0  0  0  0  0
    0.0000    0.0000    0.0000 C   0  0  0  0  0  0  0  0  0  0  0  0
    0.0000    0.0000    0.0000 C   0  0  0  0  0  0  0  0  0  0  0  0
    0.0000    0.0000    0.0000 N   0  0  0  0  0  0  0  0  0  0  0  0
    0.0000    0.0000    0.0000 N   0  0  0  0  0  0  0  0  0  0  0  0
    0.0000    0.0000    0.0000 C   0  0  0  0  0  0  0  0  0  0  0  0
    0.0000    0.0000    0.0000 C   0  0  0  0  0  0  0  0  0  0  0  0
    0.0000    0.0000    0.0000 C   0  0  0  0  0  0  0  0  0  0  0  0
    0.0000    0.0000    0.0000 C   0  0  0  0  0  0  0  0  0  0  0  0
    0.0000    0.0000    0.0000 N   0  0  0  0  0  0  0  0  0  0  0  0
    0.0000    0.0000    0.0000 C   0  0  0  0  0  0  0  0  0  0  0  0
    0.0000    0.0000    0.0000 N   0  0  0  0  0  0  0  0  0  0  0  0
    0.0000    0.0000    0.0000 C   0  0  0  0  0  0  0  0  0  0  0  0
    0.0000    0.0000    0.0000 N   0  0  0  0  0  0  0  0  0  0  0  0
    0.0000    0.0000    0.0000 C   0  0  0  0  0  0  0  0  0  0  0  0
  1  2  1  0
  2  3  1  0
  3  4  2  0
  4  5  1  0
  5  6  2  0
  6  7  1  0
  7  8  2  0
  8  9  1  0
  9 10  1  0
  7 11  1  0
 11 12  2  0
 12 13  1  0
 13 14  1  0
 14 15  1  0
 14 16  1  0
 13 17  1  0
 17 18  2  0
 18 19  1  0
 19 20  2  0
 20 21  1  0
 21 22  1  0
 21 23  2  0
  8  3  1  0
 23 11  1  0
 23 17  1  0
M  END
>  <pIC50>  (369) 
4.95

>  <ChEMBL_ID>  (369) 
CHEMBL1242751

>  <document_journal>  (369) 
Nat. Chem. Biol.

>  <bao_endpoint>  (369) 
BAO_0000190

>  <potential_duplicate>  (369) 
False

>  <uo_units>  (369) 
UO_0000065

>  <canonical_smiles>  (369) 
COc1cccc(c1OC)c2nn(C(C)C)c3ncnc(N)c23

>  <parent_molecule_chembl_id>  (369) 
CHEMBL1242751

>  <assay_type>  (369) 
B

>  <src_id>  (369) 
1

>  <ligand_efficiency>  (369) 
{u'le': u'0.29', u'bei': u'15.8', u'sei': u'5.62', u'lle': u'2.42'}

>  <standard_flag>  (369) 
True

>  <molecule_chembl_id>  (369) 
CHEMBL1242751

>  <target_organism>  (369) 
Homo sapiens

>  <standard_units>  (369) 
nM

>  <record_id>  (369) 
954093

>  <document_chembl_id>  (369) 
CHEMBL1240340

>  <bao_format>  (369) 
BAO_0000357

>  <data_validity_description>  (369) 
None

>  <activity_id>  (369) 
3442306

>  <standard_type>  (369) 
IC50

>  <target_chembl_id>  (369) 
CHEMBL1862

>  <data_validity_comment>  (369) 
None

>  <published_value>  (369) 
11.2

>  <document_year>  (369) 
2008

>  <target_pref_name>  (369) 
Tyrosine-protein kinase ABL

>  <assay_chembl_id>  (369) 
CHEMBL1243972

>  <standard_relation>  (369) 
=

>  <assay_description>  (369) 
Inhibition of recombinant c-Abl by radioactive phosphotransfer assay in presence of 10 uM ATP

>  <published_relation>  (369) 
=

>  <standard_value>  (369) 
11200

>  <qudt_units>  (369) 
http://www.openphacts.org/units/Nanomolar

>  <target_tax_id>  (369) 
9606

>  <bao_label>  (369) 
single protein format

>  <published_units>  (369) 
uM

>  <pchembl_value>  (369) 
4.95

>  <published_type>  (369) 
IC50

>  <activity_comment>  (369) 
None

$$$$

     RDKit          

 24 26  0  0  0  0  0  0  0  0999 V2000
    0.0000    0.0000    0.0000 C   0  0  0  0  0  0  0  0  0  0  0  0
    0.0000    0.0000    0.0000 C   0  0  0  0  0  0  0  0  0  0  0  0
    0.0000    0.0000    0.0000 O   0  0  0  0  0  0  0  0  0  0  0  0
    0.0000    0.0000    0.0000 C   0  0  0  0  0  0  0  0  0  0  0  0
    0.0000    0.0000    0.0000 C   0  0  0  0  0  0  0  0  0  0  0  0
    0.0000    0.0000    0.0000 C   0  0  0  0  0  0  0  0  0  0  0  0
    0.0000    0.0000    0.0000 C   0  0  0  0  0  0  0  0  0  0  0  0
    0.0000    0.0000    0.0000 C   0  0  0  0  0  0  0  0  0  0  0  0
    0.0000    0.0000    0.0000 C   0  0  0  0  0  0  0  0  0  0  0  0
    0.0000    0.0000    0.0000 O   0  0  0  0  0  0  0  0  0  0  0  0
    0.0000    0.0000    0.0000 C   0  0  0  0  0  0  0  0  0  0  0  0
    0.0000    0.0000    0.0000 C   0  0  0  0  0  0  0  0  0  0  0  0
    0.0000    0.0000    0.0000 N   0  0  0  0  0  0  0  0  0  0  0  0
    0.0000    0.0000    0.0000 N   0  0  0  0  0  0  0  0  0  0  0  0
    0.0000    0.0000    0.0000 C   0  0  0  0  0  0  0  0  0  0  0  0
    0.0000    0.0000    0.0000 C   0  0  0  0  0  0  0  0  0  0  0  0
    0.0000    0.0000    0.0000 C   0  0  0  0  0  0  0  0  0  0  0  0
    0.0000    0.0000    0.0000 C   0  0  0  0  0  0  0  0  0  0  0  0
    0.0000    0.0000    0.0000 N   0  0  0  0  0  0  0  0  0  0  0  0
    0.0000    0.0000    0.0000 C   0  0  0  0  0  0  0  0  0  0  0  0
    0.0000    0.0000    0.0000 N   0  0  0  0  0  0  0  0  0  0  0  0
    0.0000    0.0000    0.0000 C   0  0  0  0  0  0  0  0  0  0  0  0
    0.0000    0.0000    0.0000 N   0  0  0  0  0  0  0  0  0  0  0  0
    0.0000    0.0000    0.0000 C   0  0  0  0  0  0  0  0  0  0  0  0
  1  2  1  0
  2  3  1  0
  3  4  1  0
  4  5  2  0
  5  6  1  0
  6  7  2  0
  7  8  1  0
  8  9  2  0
  9 10  1  0
 10 11  1  0
  6 12  1  0
 12 13  2  0
 13 14  1  0
 14 15  1  0
 15 16  1  0
 15 17  1  0
 14 18  1  0
 18 19  2  0
 19 20  1  0
 20 21  2  0
 21 22  1  0
 22 23  1  0
 22 24  2  0
  9  4  1  0
 24 12  1  0
 24 18  1  0
M  END
>  <pIC50>  (370) 
5.22

>  <ChEMBL_ID>  (370) 
CHEMBL1242752

>  <document_journal>  (370) 
Nat. Chem. Biol.

>  <bao_endpoint>  (370) 
BAO_0000190

>  <potential_duplicate>  (370) 
False

>  <uo_units>  (370) 
UO_0000065

>  <canonical_smiles>  (370) 
CCOc1cc(ccc1OC)c2nn(C(C)C)c3ncnc(N)c23

>  <parent_molecule_chembl_id>  (370) 
CHEMBL1242752

>  <assay_type>  (370) 
B

>  <src_id>  (370) 
1

>  <ligand_efficiency>  (370) 
{u'le': u'0.3', u'bei': u'15.95', u'sei': u'5.93', u'lle': u'2.34'}

>  <standard_flag>  (370) 
True

>  <molecule_chembl_id>  (370) 
CHEMBL1242752

>  <target_organism>  (370) 
Homo sapiens

>  <standard_units>  (370) 
nM

>  <record_id>  (370) 
954094

>  <document_chembl_id>  (370) 
CHEMBL1240340

>  <bao_format>  (370) 
BAO_0000357

>  <data_validity_description>  (370) 
None

>  <activity_id>  (370) 
3442320

>  <standard_type>  (370) 
IC50

>  <target_chembl_id>  (370) 
CHEMBL1862

>  <data_validity_comment>  (370) 
None

>  <published_value>  (370) 
6

>  <document_year>  (370) 
2008

>  <target_pref_name>  (370) 
Tyrosine-protein kinase ABL

>  <assay_chembl_id>  (370) 
CHEMBL1243972

>  <standard_relation>  (370) 
=

>  <assay_description>  (370) 
Inhibition of recombinant c-Abl by radioactive phosphotransfer assay in presence of 10 uM ATP

>  <published_relation>  (370) 
=

>  <standard_value>  (370) 
6000

>  <qudt_units>  (370) 
http://www.openphacts.org/units/Nanomolar

>  <target_tax_id>  (370) 
9606

>  <bao_label>  (370) 
single protein format

>  <published_units>  (370) 
uM

>  <pchembl_value>  (370) 
5.22

>  <published_type>  (370) 
IC50

>  <activity_comment>  (370) 
None

$$$$

     RDKit          

 24 26  0  0  0  0  0  0  0  0999 V2000
    0.0000    0.0000    0.0000 C   0  0  0  0  0  0  0  0  0  0  0  0
    0.0000    0.0000    0.0000 C   0  0  0  0  0  0  0  0  0  0  0  0
    0.0000    0.0000    0.0000 O   0  0  0  0  0  0  0  0  0  0  0  0
    0.0000    0.0000    0.0000 C   0  0  0  0  0  0  0  0  0  0  0  0
    0.0000    0.0000    0.0000 C   0  0  0  0  0  0  0  0  0  0  0  0
    0.0000    0.0000    0.0000 C   0  0  0  0  0  0  0  0  0  0  0  0
    0.0000    0.0000    0.0000 C   0  0  0  0  0  0  0  0  0  0  0  0
    0.0000    0.0000    0.0000 C   0  0  0  0  0  0  0  0  0  0  0  0
    0.0000    0.0000    0.0000 C   0  0  0  0  0  0  0  0  0  0  0  0
    0.0000    0.0000    0.0000 O   0  0  0  0  0  0  0  0  0  0  0  0
    0.0000    0.0000    0.0000 C   0  0  0  0  0  0  0  0  0  0  0  0
    0.0000    0.0000    0.0000 C   0  0  0  0  0  0  0  0  0  0  0  0
    0.0000    0.0000    0.0000 N   0  0  0  0  0  0  0  0  0  0  0  0
    0.0000    0.0000    0.0000 N   0  0  0  0  0  0  0  0  0  0  0  0
    0.0000    0.0000    0.0000 C   0  0  0  0  0  0  0  0  0  0  0  0
    0.0000    0.0000    0.0000 C   0  0  0  0  0  0  0  0  0  0  0  0
    0.0000    0.0000    0.0000 O   0  0  0  0  0  0  0  0  0  0  0  0
    0.0000    0.0000    0.0000 C   0  0  0  0  0  0  0  0  0  0  0  0
    0.0000    0.0000    0.0000 N   0  0  0  0  0  0  0  0  0  0  0  0
    0.0000    0.0000    0.0000 C   0  0  0  0  0  0  0  0  0  0  0  0
    0.0000    0.0000    0.0000 N   0  0  0  0  0  0  0  0  0  0  0  0
    0.0000    0.0000    0.0000 C   0  0  0  0  0  0  0  0  0  0  0  0
    0.0000    0.0000    0.0000 N   0  0  0  0  0  0  0  0  0  0  0  0
    0.0000    0.0000    0.0000 C   0  0  0  0  0  0  0  0  0  0  0  0
  1  2  1  0
  2  3  1  0
  3  4  1  0
  4  5  2  0
  5  6  1  0
  6  7  2  0
  7  8  1  0
  8  9  2  0
  9 10  1  0
 10 11  1  0
  6 12  1  0
 12 13  2  0
 13 14  1  0
 14 15  1  0
 15 16  1  0
 16 17  1  0
 14 18  1  0
 18 19  2  0
 19 20  1  0
 20 21  2  0
 21 22  1  0
 22 23  1  0
 22 24  2  0
  9  4  1  0
 24 12  1  0
 24 18  1  0
M  END
>  <pIC50>  (371) 
4.19

>  <ChEMBL_ID>  (371) 
CHEMBL1242753

>  <document_journal>  (371) 
Nat. Chem. Biol.

>  <bao_endpoint>  (371) 
BAO_0000190

>  <potential_duplicate>  (371) 
False

>  <uo_units>  (371) 
UO_0000065

>  <canonical_smiles>  (371) 
CCOc1cc(ccc1OC)c2nn(CCO)c3ncnc(N)c23

>  <parent_molecule_chembl_id>  (371) 
CHEMBL1242753

>  <assay_type>  (371) 
B

>  <src_id>  (371) 
1

>  <ligand_efficiency>  (371) 
{u'le': u'0.24', u'bei': u'12.71', u'sei': u'3.87', u'lle': u'2.57'}

>  <standard_flag>  (371) 
True

>  <molecule_chembl_id>  (371) 
CHEMBL1242753

>  <target_organism>  (371) 
Homo sapiens

>  <standard_units>  (371) 
nM

>  <record_id>  (371) 
954095

>  <document_chembl_id>  (371) 
CHEMBL1240340

>  <bao_format>  (371) 
BAO_0000357

>  <data_validity_description>  (371) 
None

>  <activity_id>  (371) 
3442334

>  <standard_type>  (371) 
IC50

>  <target_chembl_id>  (371) 
CHEMBL1862

>  <data_validity_comment>  (371) 
None

>  <published_value>  (371) 
65

>  <document_year>  (371) 
2008

>  <target_pref_name>  (371) 
Tyrosine-protein kinase ABL

>  <assay_chembl_id>  (371) 
CHEMBL1243972

>  <standard_relation>  (371) 
=

>  <assay_description>  (371) 
Inhibition of recombinant c-Abl by radioactive phosphotransfer assay in presence of 10 uM ATP

>  <published_relation>  (371) 
=

>  <standard_value>  (371) 
65000

>  <qudt_units>  (371) 
http://www.openphacts.org/units/Nanomolar

>  <target_tax_id>  (371) 
9606

>  <bao_label>  (371) 
single protein format

>  <published_units>  (371) 
uM

>  <pchembl_value>  (371) 
4.19

>  <published_type>  (371) 
IC50

>  <activity_comment>  (371) 
None

$$$$

     RDKit          

 23 25  0  0  0  0  0  0  0  0999 V2000
    0.0000    0.0000    0.0000 C   0  0  0  0  0  0  0  0  0  0  0  0
    0.0000    0.0000    0.0000 O   0  0  0  0  0  0  0  0  0  0  0  0
    0.0000    0.0000    0.0000 C   0  0  0  0  0  0  0  0  0  0  0  0
    0.0000    0.0000    0.0000 N   0  0  0  0  0  0  0  0  0  0  0  0
    0.0000    0.0000    0.0000 C   0  0  0  0  0  0  0  0  0  0  0  0
    0.0000    0.0000    0.0000 C   0  0  0  0  0  0  0  0  0  0  0  0
    0.0000    0.0000    0.0000 C   0  0  0  0  0  0  0  0  0  0  0  0
    0.0000    0.0000    0.0000 O   0  0  0  0  0  0  0  0  0  0  0  0
    0.0000    0.0000    0.0000 C   0  0  0  0  0  0  0  0  0  0  0  0
    0.0000    0.0000    0.0000 N   0  0  0  0  0  0  0  0  0  0  0  0
    0.0000    0.0000    0.0000 C   0  0  0  0  0  0  0  0  0  0  0  0
    0.0000    0.0000    0.0000 N   0  0  0  0  0  0  0  0  0  0  0  0
    0.0000    0.0000    0.0000 N   0  0  0  0  0  0  0  0  0  0  0  0
    0.0000    0.0000    0.0000 C   0  0  0  0  0  0  0  0  0  0  0  0
    0.0000    0.0000    0.0000 C   0  0  0  0  0  0  0  0  0  0  0  0
    0.0000    0.0000    0.0000 C   0  0  0  0  0  0  0  0  0  0  0  0
    0.0000    0.0000    0.0000 C   0  0  0  0  0  0  0  0  0  0  0  0
    0.0000    0.0000    0.0000 N   0  0  0  0  0  0  0  0  0  0  0  0
    0.0000    0.0000    0.0000 C   0  0  0  0  0  0  0  0  0  0  0  0
    0.0000    0.0000    0.0000 N   0  0  0  0  0  0  0  0  0  0  0  0
    0.0000    0.0000    0.0000 C   0  0  0  0  0  0  0  0  0  0  0  0
    0.0000    0.0000    0.0000 N   0  0  0  0  0  0  0  0  0  0  0  0
    0.0000    0.0000    0.0000 C   0  0  0  0  0  0  0  0  0  0  0  0
  1  2  1  0
  2  3  1  0
  3  4  2  0
  4  5  1  0
  5  6  2  0
  6  7  1  0
  7  8  1  0
  8  9  1  0
  7 10  2  0
  6 11  1  0
 11 12  2  0
 12 13  1  0
 13 14  1  0
 14 15  1  0
 14 16  1  0
 13 17  1  0
 17 18  2  0
 18 19  1  0
 19 20  2  0
 20 21  1  0
 21 22  1  0
 21 23  2  0
 10  3  1  0
 23 11  1  0
 23 17  1  0
M  END
>  <pIC50>  (372) 
5.92

>  <ChEMBL_ID>  (372) 
CHEMBL1242846

>  <document_journal>  (372) 
Nat. Chem. Biol.

>  <bao_endpoint>  (372) 
BAO_0000190

>  <potential_duplicate>  (372) 
False

>  <uo_units>  (372) 
UO_0000065

>  <canonical_smiles>  (372) 
COc1ncc(c(OC)n1)c2nn(C(C)C)c3ncnc(N)c23

>  <parent_molecule_chembl_id>  (372) 
CHEMBL1242846

>  <assay_type>  (372) 
B

>  <src_id>  (372) 
1

>  <ligand_efficiency>  (372) 
{u'le': u'0.35', u'bei': u'18.79', u'sei': u'5.2', u'lle': u'4.11'}

>  <standard_flag>  (372) 
True

>  <molecule_chembl_id>  (372) 
CHEMBL1242846

>  <target_organism>  (372) 
Homo sapiens

>  <standard_units>  (372) 
nM

>  <record_id>  (372) 
954225

>  <document_chembl_id>  (372) 
CHEMBL1240340

>  <bao_format>  (372) 
BAO_0000357

>  <data_validity_description>  (372) 
None

>  <activity_id>  (372) 
3442348

>  <standard_type>  (372) 
IC50

>  <target_chembl_id>  (372) 
CHEMBL1862

>  <data_validity_comment>  (372) 
None

>  <published_value>  (372) 
1.19

>  <document_year>  (372) 
2008

>  <target_pref_name>  (372) 
Tyrosine-protein kinase ABL

>  <assay_chembl_id>  (372) 
CHEMBL1243972

>  <standard_relation>  (372) 
=

>  <assay_description>  (372) 
Inhibition of recombinant c-Abl by radioactive phosphotransfer assay in presence of 10 uM ATP

>  <published_relation>  (372) 
=

>  <standard_value>  (372) 
1190

>  <qudt_units>  (372) 
http://www.openphacts.org/units/Nanomolar

>  <target_tax_id>  (372) 
9606

>  <bao_label>  (372) 
single protein format

>  <published_units>  (372) 
uM

>  <pchembl_value>  (372) 
5.92

>  <published_type>  (372) 
IC50

>  <activity_comment>  (372) 
None

$$$$

     RDKit          

 21 23  0  0  0  0  0  0  0  0999 V2000
    0.0000    0.0000    0.0000 C   0  0  0  0  0  0  0  0  0  0  0  0
    0.0000    0.0000    0.0000 O   0  0  0  0  0  0  0  0  0  0  0  0
    0.0000    0.0000    0.0000 C   0  0  0  0  0  0  0  0  0  0  0  0
    0.0000    0.0000    0.0000 C   0  0  0  0  0  0  0  0  0  0  0  0
    0.0000    0.0000    0.0000 C   0  0  0  0  0  0  0  0  0  0  0  0
    0.0000    0.0000    0.0000 C   0  0  0  0  0  0  0  0  0  0  0  0
    0.0000    0.0000    0.0000 C   0  0  0  0  0  0  0  0  0  0  0  0
    0.0000    0.0000    0.0000 C   0  0  0  0  0  0  0  0  0  0  0  0
    0.0000    0.0000    0.0000 C   0  0  0  0  0  0  0  0  0  0  0  0
    0.0000    0.0000    0.0000 N   0  0  0  0  0  0  0  0  0  0  0  0
    0.0000    0.0000    0.0000 N   0  0  0  0  0  0  0  0  0  0  0  0
    0.0000    0.0000    0.0000 C   0  0  0  0  0  0  0  0  0  0  0  0
    0.0000    0.0000    0.0000 C   0  0  0  0  0  0  0  0  0  0  0  0
    0.0000    0.0000    0.0000 C   0  0  0  0  0  0  0  0  0  0  0  0
    0.0000    0.0000    0.0000 C   0  0  0  0  0  0  0  0  0  0  0  0
    0.0000    0.0000    0.0000 N   0  0  0  0  0  0  0  0  0  0  0  0
    0.0000    0.0000    0.0000 C   0  0  0  0  0  0  0  0  0  0  0  0
    0.0000    0.0000    0.0000 N   0  0  0  0  0  0  0  0  0  0  0  0
    0.0000    0.0000    0.0000 C   0  0  0  0  0  0  0  0  0  0  0  0
    0.0000    0.0000    0.0000 N   0  0  0  0  0  0  0  0  0  0  0  0
    0.0000    0.0000    0.0000 C   0  0  0  0  0  0  0  0  0  0  0  0
  1  2  1  0
  2  3  1  0
  3  4  2  0
  4  5  1  0
  5  6  2  0
  6  7  1  0
  7  8  2  0
  6  9  1  0
  9 10  2  0
 10 11  1  0
 11 12  1  0
 12 13  1  0
 12 14  1  0
 11 15  1  0
 15 16  2  0
 16 17  1  0
 17 18  2  0
 18 19  1  0
 19 20  1  0
 19 21  2  0
  8  3  1  0
 21  9  1  0
 21 15  1  0
M  END
>  <pIC50>  (373) 
5.44

>  <ChEMBL_ID>  (373) 
CHEMBL1242847

>  <document_journal>  (373) 
Nat. Chem. Biol.

>  <bao_endpoint>  (373) 
BAO_0000190

>  <potential_duplicate>  (373) 
False

>  <uo_units>  (373) 
UO_0000065

>  <canonical_smiles>  (373) 
COc1ccc(cc1)c2nn(C(C)C)c3ncnc(N)c23

>  <parent_molecule_chembl_id>  (373) 
CHEMBL1242847

>  <assay_type>  (373) 
B

>  <src_id>  (373) 
1

>  <ligand_efficiency>  (373) 
{u'le': u'0.35', u'bei': u'19.21', u'sei': u'6.9', u'lle': u'2.89'}

>  <standard_flag>  (373) 
True

>  <molecule_chembl_id>  (373) 
CHEMBL1242847

>  <target_organism>  (373) 
Homo sapiens

>  <standard_units>  (373) 
nM

>  <record_id>  (373) 
954226

>  <document_chembl_id>  (373) 
CHEMBL1240340

>  <bao_format>  (373) 
BAO_0000357

>  <data_validity_description>  (373) 
None

>  <activity_id>  (373) 
3442362

>  <standard_type>  (373) 
IC50

>  <target_chembl_id>  (373) 
CHEMBL1862

>  <data_validity_comment>  (373) 
None

>  <published_value>  (373) 
3.6

>  <document_year>  (373) 
2008

>  <target_pref_name>  (373) 
Tyrosine-protein kinase ABL

>  <assay_chembl_id>  (373) 
CHEMBL1243972

>  <standard_relation>  (373) 
=

>  <assay_description>  (373) 
Inhibition of recombinant c-Abl by radioactive phosphotransfer assay in presence of 10 uM ATP

>  <published_relation>  (373) 
=

>  <standard_value>  (373) 
3600

>  <qudt_units>  (373) 
http://www.openphacts.org/units/Nanomolar

>  <target_tax_id>  (373) 
9606

>  <bao_label>  (373) 
single protein format

>  <published_units>  (373) 
uM

>  <pchembl_value>  (373) 
5.44

>  <published_type>  (373) 
IC50

>  <activity_comment>  (373) 
None

$$$$

     RDKit          

 21 23  0  0  0  0  0  0  0  0999 V2000
    0.0000    0.0000    0.0000 C   0  0  0  0  0  0  0  0  0  0  0  0
    0.0000    0.0000    0.0000 C   0  0  0  0  0  0  0  0  0  0  0  0
    0.0000    0.0000    0.0000 C   0  0  0  0  0  0  0  0  0  0  0  0
    0.0000    0.0000    0.0000 N   0  0  0  0  0  0  0  0  0  0  0  0
    0.0000    0.0000    0.0000 N   0  0  0  0  0  0  0  0  0  0  0  0
    0.0000    0.0000    0.0000 C   0  0  0  0  0  0  0  0  0  0  0  0
    0.0000    0.0000    0.0000 C   0  0  0  0  0  0  0  0  0  0  0  0
    0.0000    0.0000    0.0000 C   0  0  0  0  0  0  0  0  0  0  0  0
    0.0000    0.0000    0.0000 C   0  0  0  0  0  0  0  0  0  0  0  0
    0.0000    0.0000    0.0000 C   0  0  0  0  0  0  0  0  0  0  0  0
    0.0000    0.0000    0.0000 N   0  0  0  0  0  0  0  0  0  0  0  0
    0.0000    0.0000    0.0000 C   0  0  0  0  0  0  0  0  0  0  0  0
    0.0000    0.0000    0.0000 O   0  0  0  0  0  0  0  0  0  0  0  0
    0.0000    0.0000    0.0000 C   0  0  0  0  0  0  0  0  0  0  0  0
    0.0000    0.0000    0.0000 C   0  0  0  0  0  0  0  0  0  0  0  0
    0.0000    0.0000    0.0000 C   0  0  0  0  0  0  0  0  0  0  0  0
    0.0000    0.0000    0.0000 N   0  0  0  0  0  0  0  0  0  0  0  0
    0.0000    0.0000    0.0000 N   0  0  0  0  0  0  0  0  0  0  0  0
    0.0000    0.0000    0.0000 C   0  0  0  0  0  0  0  0  0  0  0  0
    0.0000    0.0000    0.0000 N   0  0  0  0  0  0  0  0  0  0  0  0
    0.0000    0.0000    0.0000 C   0  0  0  0  0  0  0  0  0  0  0  0
  1  2  1  0
  2  3  1  0
  2  4  1  0
  4  5  1  0
  5  6  2  0
  6  7  1  0
  7  8  2  0
  8  9  1  0
  9 10  2  0
 10 11  1  0
 10 12  1  0
 12 13  1  0
 12 14  2  0
  6 15  1  0
 15 16  2  0
 16 17  1  0
 16 18  1  0
 18 19  2  0
 19 20  1  0
 20 21  2  0
 21  4  1  0
 14  7  1  0
 21 15  1  0
M  END
>  <pIC50>  (374) 
6.68

>  <ChEMBL_ID>  (374) 
CHEMBL1242848

>  <document_journal>  (374) 
Nat. Chem. Biol.

>  <bao_endpoint>  (374) 
BAO_0000190

>  <potential_duplicate>  (374) 
False

>  <uo_units>  (374) 
UO_0000065

>  <canonical_smiles>  (374) 
CC(C)n1nc(c2ccc(N)c(O)c2)c3c(N)ncnc13

>  <parent_molecule_chembl_id>  (374) 
CHEMBL1242848

>  <assay_type>  (374) 
B

>  <src_id>  (374) 
1

>  <ligand_efficiency>  (374) 
{u'le': u'0.43', u'bei': u'23.5', u'sei': u'5.77', u'lle': u'5.1'}

>  <standard_flag>  (374) 
True

>  <molecule_chembl_id>  (374) 
CHEMBL1242848

>  <target_organism>  (374) 
Homo sapiens

>  <standard_units>  (374) 
nM

>  <record_id>  (374) 
954227

>  <document_chembl_id>  (374) 
CHEMBL1240340

>  <bao_format>  (374) 
BAO_0000357

>  <data_validity_description>  (374) 
None

>  <activity_id>  (374) 
3442390

>  <standard_type>  (374) 
IC50

>  <target_chembl_id>  (374) 
CHEMBL1862

>  <data_validity_comment>  (374) 
None

>  <published_value>  (374) 
0.208

>  <document_year>  (374) 
2008

>  <target_pref_name>  (374) 
Tyrosine-protein kinase ABL

>  <assay_chembl_id>  (374) 
CHEMBL1243972

>  <standard_relation>  (374) 
=

>  <assay_description>  (374) 
Inhibition of recombinant c-Abl by radioactive phosphotransfer assay in presence of 10 uM ATP

>  <published_relation>  (374) 
=

>  <standard_value>  (374) 
208

>  <qudt_units>  (374) 
http://www.openphacts.org/units/Nanomolar

>  <target_tax_id>  (374) 
9606

>  <bao_label>  (374) 
single protein format

>  <published_units>  (374) 
uM

>  <pchembl_value>  (374) 
6.68

>  <published_type>  (374) 
IC50

>  <activity_comment>  (374) 
None

$$$$

     RDKit          

 22 24  0  0  0  0  0  0  0  0999 V2000
    0.0000    0.0000    0.0000 C   0  0  0  0  0  0  0  0  0  0  0  0
    0.0000    0.0000    0.0000 O   0  0  0  0  0  0  0  0  0  0  0  0
    0.0000    0.0000    0.0000 C   0  0  0  0  0  0  0  0  0  0  0  0
    0.0000    0.0000    0.0000 C   0  0  0  0  0  0  0  0  0  0  0  0
    0.0000    0.0000    0.0000 C   0  0  0  0  0  0  0  0  0  0  0  0
    0.0000    0.0000    0.0000 C   0  0  0  0  0  0  0  0  0  0  0  0
    0.0000    0.0000    0.0000 C   0  0  0  0  0  0  0  0  0  0  0  0
    0.0000    0.0000    0.0000 C   0  0  0  0  0  0  0  0  0  0  0  0
    0.0000    0.0000    0.0000 N   0  0  0  0  0  0  0  0  0  0  0  0
    0.0000    0.0000    0.0000 C   0  0  0  0  0  0  0  0  0  0  0  0
    0.0000    0.0000    0.0000 N   0  0  0  0  0  0  0  0  0  0  0  0
    0.0000    0.0000    0.0000 N   0  0  0  0  0  0  0  0  0  0  0  0
    0.0000    0.0000    0.0000 C   0  0  0  0  0  0  0  0  0  0  0  0
    0.0000    0.0000    0.0000 C   0  0  0  0  0  0  0  0  0  0  0  0
    0.0000    0.0000    0.0000 C   0  0  0  0  0  0  0  0  0  0  0  0
    0.0000    0.0000    0.0000 C   0  0  0  0  0  0  0  0  0  0  0  0
    0.0000    0.0000    0.0000 N   0  0  0  0  0  0  0  0  0  0  0  0
    0.0000    0.0000    0.0000 C   0  0  0  0  0  0  0  0  0  0  0  0
    0.0000    0.0000    0.0000 N   0  0  0  0  0  0  0  0  0  0  0  0
    0.0000    0.0000    0.0000 C   0  0  0  0  0  0  0  0  0  0  0  0
    0.0000    0.0000    0.0000 N   0  0  0  0  0  0  0  0  0  0  0  0
    0.0000    0.0000    0.0000 C   0  0  0  0  0  0  0  0  0  0  0  0
  1  2  1  0
  2  3  1  0
  3  4  2  0
  4  5  1  0
  5  6  2  0
  6  7  1  0
  7  8  2  0
  8  9  1  0
  5 10  1  0
 10 11  2  0
 11 12  1  0
 12 13  1  0
 13 14  1  0
 13 15  1  0
 12 16  1  0
 16 17  2  0
 17 18  1  0
 18 19  2  0
 19 20  1  0
 20 21  1  0
 20 22  2  0
  8  3  1  0
 22 10  1  0
 22 16  1  0
M  END
>  <pIC50>  (375) 
6.59

>  <ChEMBL_ID>  (375) 
CHEMBL1241485

>  <document_journal>  (375) 
Nat. Chem. Biol.

>  <bao_endpoint>  (375) 
BAO_0000190

>  <potential_duplicate>  (375) 
False

>  <uo_units>  (375) 
UO_0000065

>  <canonical_smiles>  (375) 
COc1cc(ccc1N)c2nn(C(C)C)c3ncnc(N)c23

>  <parent_molecule_chembl_id>  (375) 
CHEMBL1241485

>  <assay_type>  (375) 
B

>  <src_id>  (375) 
1

>  <ligand_efficiency>  (375) 
{u'le': u'0.41', u'bei': u'22.07', u'sei': u'6.28', u'lle': u'4.79'}

>  <standard_flag>  (375) 
True

>  <molecule_chembl_id>  (375) 
CHEMBL1241485

>  <target_organism>  (375) 
Homo sapiens

>  <standard_units>  (375) 
nM

>  <record_id>  (375) 
952249

>  <document_chembl_id>  (375) 
CHEMBL1240340

>  <bao_format>  (375) 
BAO_0000357

>  <data_validity_description>  (375) 
None

>  <activity_id>  (375) 
3442404

>  <standard_type>  (375) 
IC50

>  <target_chembl_id>  (375) 
CHEMBL1862

>  <data_validity_comment>  (375) 
None

>  <published_value>  (375) 
0.26

>  <document_year>  (375) 
2008

>  <target_pref_name>  (375) 
Tyrosine-protein kinase ABL

>  <assay_chembl_id>  (375) 
CHEMBL1243972

>  <standard_relation>  (375) 
=

>  <assay_description>  (375) 
Inhibition of recombinant c-Abl by radioactive phosphotransfer assay in presence of 10 uM ATP

>  <published_relation>  (375) 
=

>  <standard_value>  (375) 
260

>  <qudt_units>  (375) 
http://www.openphacts.org/units/Nanomolar

>  <target_tax_id>  (375) 
9606

>  <bao_label>  (375) 
single protein format

>  <published_units>  (375) 
uM

>  <pchembl_value>  (375) 
6.59

>  <published_type>  (375) 
IC50

>  <activity_comment>  (375) 
None

$$$$

     RDKit          

 26 28  0  0  0  0  0  0  0  0999 V2000
    0.0000    0.0000    0.0000 C   0  0  0  0  0  0  0  0  0  0  0  0
    0.0000    0.0000    0.0000 O   0  0  0  0  0  0  0  0  0  0  0  0
    0.0000    0.0000    0.0000 C   0  0  0  0  0  0  0  0  0  0  0  0
    0.0000    0.0000    0.0000 C   0  0  0  0  0  0  0  0  0  0  0  0
    0.0000    0.0000    0.0000 C   0  0  0  0  0  0  0  0  0  0  0  0
    0.0000    0.0000    0.0000 C   0  0  0  0  0  0  0  0  0  0  0  0
    0.0000    0.0000    0.0000 C   0  0  0  0  0  0  0  0  0  0  0  0
    0.0000    0.0000    0.0000 C   0  0  0  0  0  0  0  0  0  0  0  0
    0.0000    0.0000    0.0000 N   0  0  0  0  0  0  0  0  0  0  0  0
    0.0000    0.0000    0.0000 C   0  0  0  0  0  0  0  0  0  0  0  0
    0.0000    0.0000    0.0000 C   0  0  0  0  0  0  0  0  0  0  0  0
    0.0000    0.0000    0.0000 C   0  0  0  0  0  0  0  0  0  0  0  0
    0.0000    0.0000    0.0000 O   0  0  0  0  0  0  0  0  0  0  0  0
    0.0000    0.0000    0.0000 C   0  0  0  0  0  0  0  0  0  0  0  0
    0.0000    0.0000    0.0000 N   0  0  0  0  0  0  0  0  0  0  0  0
    0.0000    0.0000    0.0000 N   0  0  0  0  0  0  0  0  0  0  0  0
    0.0000    0.0000    0.0000 C   0  0  0  0  0  0  0  0  0  0  0  0
    0.0000    0.0000    0.0000 C   0  0  0  0  0  0  0  0  0  0  0  0
    0.0000    0.0000    0.0000 C   0  0  0  0  0  0  0  0  0  0  0  0
    0.0000    0.0000    0.0000 C   0  0  0  0  0  0  0  0  0  0  0  0
    0.0000    0.0000    0.0000 N   0  0  0  0  0  0  0  0  0  0  0  0
    0.0000    0.0000    0.0000 C   0  0  0  0  0  0  0  0  0  0  0  0
    0.0000    0.0000    0.0000 N   0  0  0  0  0  0  0  0  0  0  0  0
    0.0000    0.0000    0.0000 C   0  0  0  0  0  0  0  0  0  0  0  0
    0.0000    0.0000    0.0000 N   0  0  0  0  0  0  0  0  0  0  0  0
    0.0000    0.0000    0.0000 C   0  0  0  0  0  0  0  0  0  0  0  0
  1  2  1  0
  2  3  1  0
  3  4  2  0
  4  5  1  0
  5  6  2  0
  6  7  1  0
  7  8  2  0
  8  9  1  0
  9 10  1  0
 10 11  1  0
 10 12  1  0
 12 13  1  0
  5 14  1  0
 14 15  2  0
 15 16  1  0
 16 17  1  0
 17 18  1  0
 17 19  1  0
 16 20  1  0
 20 21  2  0
 21 22  1  0
 22 23  2  0
 23 24  1  0
 24 25  1  0
 24 26  2  0
  8  3  1  0
 26 14  1  0
 26 20  1  0
M  END
>  <pIC50>  (376) 
5.06

>  <ChEMBL_ID>  (376) 
CHEMBL1241486

>  <document_journal>  (376) 
Nat. Chem. Biol.

>  <bao_endpoint>  (376) 
BAO_0000190

>  <potential_duplicate>  (376) 
False

>  <uo_units>  (376) 
UO_0000065

>  <canonical_smiles>  (376) 
COc1cc(ccc1NC(C)CO)c2nn(C(C)C)c3ncnc(N)c23

>  <parent_molecule_chembl_id>  (376) 
CHEMBL1241486

>  <assay_type>  (376) 
B

>  <src_id>  (376) 
1

>  <ligand_efficiency>  (376) 
{u'le': u'0.27', u'bei': u'14.2', u'sei': u'4.55', u'lle': u'2.86'}

>  <standard_flag>  (376) 
True

>  <molecule_chembl_id>  (376) 
CHEMBL1241486

>  <target_organism>  (376) 
Homo sapiens

>  <standard_units>  (376) 
nM

>  <record_id>  (376) 
952250

>  <document_chembl_id>  (376) 
CHEMBL1240340

>  <bao_format>  (376) 
BAO_0000357

>  <data_validity_description>  (376) 
None

>  <activity_id>  (376) 
3442418

>  <standard_type>  (376) 
IC50

>  <target_chembl_id>  (376) 
CHEMBL1862

>  <data_validity_comment>  (376) 
None

>  <published_value>  (376) 
8.7

>  <document_year>  (376) 
2008

>  <target_pref_name>  (376) 
Tyrosine-protein kinase ABL

>  <assay_chembl_id>  (376) 
CHEMBL1243972

>  <standard_relation>  (376) 
=

>  <assay_description>  (376) 
Inhibition of recombinant c-Abl by radioactive phosphotransfer assay in presence of 10 uM ATP

>  <published_relation>  (376) 
=

>  <standard_value>  (376) 
8700

>  <qudt_units>  (376) 
http://www.openphacts.org/units/Nanomolar

>  <target_tax_id>  (376) 
9606

>  <bao_label>  (376) 
single protein format

>  <published_units>  (376) 
uM

>  <pchembl_value>  (376) 
5.06

>  <published_type>  (376) 
IC50

>  <activity_comment>  (376) 
None

$$$$

     RDKit          

 23 26  0  0  0  0  0  0  0  0999 V2000
    0.0000    0.0000    0.0000 N   0  0  0  0  0  0  0  0  0  0  0  0
    0.0000    0.0000    0.0000 C   0  0  0  0  0  0  0  0  0  0  0  0
    0.0000    0.0000    0.0000 C   0  0  0  0  0  0  0  0  0  0  0  0
    0.0000    0.0000    0.0000 C   0  0  0  0  0  0  0  0  0  0  0  0
    0.0000    0.0000    0.0000 C   0  0  0  0  0  0  0  0  0  0  0  0
    0.0000    0.0000    0.0000 C   0  0  0  0  0  0  0  0  0  0  0  0
    0.0000    0.0000    0.0000 C   0  0  0  0  0  0  0  0  0  0  0  0
    0.0000    0.0000    0.0000 O   0  0  0  0  0  0  0  0  0  0  0  0
    0.0000    0.0000    0.0000 C   0  0  0  0  0  0  0  0  0  0  0  0
    0.0000    0.0000    0.0000 N   0  0  0  0  0  0  0  0  0  0  0  0
    0.0000    0.0000    0.0000 N   0  0  0  0  0  0  0  0  0  0  0  0
    0.0000    0.0000    0.0000 C   0  0  0  0  0  0  0  0  0  0  0  0
    0.0000    0.0000    0.0000 C   0  0  0  0  0  0  0  0  0  0  0  0
    0.0000    0.0000    0.0000 C   0  0  0  0  0  0  0  0  0  0  0  0
    0.0000    0.0000    0.0000 C   0  0  0  0  0  0  0  0  0  0  0  0
    0.0000    0.0000    0.0000 C   0  0  0  0  0  0  0  0  0  0  0  0
    0.0000    0.0000    0.0000 C   0  0  0  0  0  0  0  0  0  0  0  0
    0.0000    0.0000    0.0000 N   0  0  0  0  0  0  0  0  0  0  0  0
    0.0000    0.0000    0.0000 C   0  0  0  0  0  0  0  0  0  0  0  0
    0.0000    0.0000    0.0000 N   0  0  0  0  0  0  0  0  0  0  0  0
    0.0000    0.0000    0.0000 C   0  0  0  0  0  0  0  0  0  0  0  0
    0.0000    0.0000    0.0000 N   0  0  0  0  0  0  0  0  0  0  0  0
    0.0000    0.0000    0.0000 C   0  0  0  0  0  0  0  0  0  0  0  0
  1  2  1  0
  2  3  2  0
  3  4  1  0
  4  5  2  0
  5  6  1  0
  6  7  2  0
  7  8  1  0
  5  9  1  0
  9 10  2  0
 10 11  1  0
 11 12  1  0
 12 13  1  0
 13 14  1  0
 14 15  1  0
 15 16  1  0
 11 17  1  0
 17 18  2  0
 18 19  1  0
 19 20  2  0
 20 21  1  0
 21 22  1  0
 21 23  2  0
  7  2  1  0
 23  9  1  0
 16 12  1  0
 23 17  1  0
M  END
>  <pIC50>  (377) 
6.95

>  <ChEMBL_ID>  (377) 
CHEMBL1241487

>  <document_journal>  (377) 
Nat. Chem. Biol.

>  <bao_endpoint>  (377) 
BAO_0000190

>  <potential_duplicate>  (377) 
False

>  <uo_units>  (377) 
UO_0000065

>  <canonical_smiles>  (377) 
Nc1ccc(cc1O)c2nn(C3CCCC3)c4ncnc(N)c24

>  <parent_molecule_chembl_id>  (377) 
CHEMBL1241487

>  <assay_type>  (377) 
B

>  <src_id>  (377) 
1

>  <ligand_efficiency>  (377) 
{u'le': u'0.41', u'bei': u'22.38', u'sei': u'6', u'lle': u'4.7'}

>  <standard_flag>  (377) 
True

>  <molecule_chembl_id>  (377) 
CHEMBL1241487

>  <target_organism>  (377) 
Homo sapiens

>  <standard_units>  (377) 
nM

>  <record_id>  (377) 
952251

>  <document_chembl_id>  (377) 
CHEMBL1240340

>  <bao_format>  (377) 
BAO_0000357

>  <data_validity_description>  (377) 
None

>  <activity_id>  (377) 
3442432

>  <standard_type>  (377) 
IC50

>  <target_chembl_id>  (377) 
CHEMBL1862

>  <data_validity_comment>  (377) 
None

>  <published_value>  (377) 
0.113

>  <document_year>  (377) 
2008

>  <target_pref_name>  (377) 
Tyrosine-protein kinase ABL

>  <assay_chembl_id>  (377) 
CHEMBL1243972

>  <standard_relation>  (377) 
=

>  <assay_description>  (377) 
Inhibition of recombinant c-Abl by radioactive phosphotransfer assay in presence of 10 uM ATP

>  <published_relation>  (377) 
=

>  <standard_value>  (377) 
113

>  <qudt_units>  (377) 
http://www.openphacts.org/units/Nanomolar

>  <target_tax_id>  (377) 
9606

>  <bao_label>  (377) 
single protein format

>  <published_units>  (377) 
uM

>  <pchembl_value>  (377) 
6.95

>  <published_type>  (377) 
IC50

>  <activity_comment>  (377) 
None

$$$$

     RDKit          

 24 27  0  0  0  0  0  0  0  0999 V2000
    0.0000    0.0000    0.0000 C   0  0  0  0  0  0  0  0  0  0  0  0
    0.0000    0.0000    0.0000 O   0  0  0  0  0  0  0  0  0  0  0  0
    0.0000    0.0000    0.0000 C   0  0  0  0  0  0  0  0  0  0  0  0
    0.0000    0.0000    0.0000 C   0  0  0  0  0  0  0  0  0  0  0  0
    0.0000    0.0000    0.0000 C   0  0  0  0  0  0  0  0  0  0  0  0
    0.0000    0.0000    0.0000 C   0  0  0  0  0  0  0  0  0  0  0  0
    0.0000    0.0000    0.0000 C   0  0  0  0  0  0  0  0  0  0  0  0
    0.0000    0.0000    0.0000 C   0  0  0  0  0  0  0  0  0  0  0  0
    0.0000    0.0000    0.0000 N   0  0  0  0  0  0  0  0  0  0  0  0
    0.0000    0.0000    0.0000 C   0  0  0  0  0  0  0  0  0  0  0  0
    0.0000    0.0000    0.0000 N   0  0  0  0  0  0  0  0  0  0  0  0
    0.0000    0.0000    0.0000 N   0  0  0  0  0  0  0  0  0  0  0  0
    0.0000    0.0000    0.0000 C   0  0  0  0  0  0  0  0  0  0  0  0
    0.0000    0.0000    0.0000 C   0  0  0  0  0  0  0  0  0  0  0  0
    0.0000    0.0000    0.0000 C   0  0  0  0  0  0  0  0  0  0  0  0
    0.0000    0.0000    0.0000 C   0  0  0  0  0  0  0  0  0  0  0  0
    0.0000    0.0000    0.0000 C   0  0  0  0  0  0  0  0  0  0  0  0
    0.0000    0.0000    0.0000 C   0  0  0  0  0  0  0  0  0  0  0  0
    0.0000    0.0000    0.0000 N   0  0  0  0  0  0  0  0  0  0  0  0
    0.0000    0.0000    0.0000 C   0  0  0  0  0  0  0  0  0  0  0  0
    0.0000    0.0000    0.0000 N   0  0  0  0  0  0  0  0  0  0  0  0
    0.0000    0.0000    0.0000 C   0  0  0  0  0  0  0  0  0  0  0  0
    0.0000    0.0000    0.0000 N   0  0  0  0  0  0  0  0  0  0  0  0
    0.0000    0.0000    0.0000 C   0  0  0  0  0  0  0  0  0  0  0  0
  1  2  1  0
  2  3  1  0
  3  4  2  0
  4  5  1  0
  5  6  2  0
  6  7  1  0
  7  8  2  0
  8  9  1  0
  5 10  1  0
 10 11  2  0
 11 12  1  0
 12 13  1  0
 13 14  1  0
 14 15  1  0
 15 16  1  0
 16 17  1  0
 12 18  1  0
 18 19  2  0
 19 20  1  0
 20 21  2  0
 21 22  1  0
 22 23  1  0
 22 24  2  0
  8  3  1  0
 24 10  1  0
 17 13  1  0
 24 18  1  0
M  END
>  <pIC50>  (378) 
7.59

>  <ChEMBL_ID>  (378) 
CHEMBL1241581

>  <document_journal>  (378) 
Nat. Chem. Biol.

>  <bao_endpoint>  (378) 
BAO_0000190

>  <potential_duplicate>  (378) 
False

>  <uo_units>  (378) 
UO_0000065

>  <canonical_smiles>  (378) 
COc1cc(ccc1N)c2nn(C3CCCC3)c4ncnc(N)c24

>  <parent_molecule_chembl_id>  (378) 
CHEMBL1241581

>  <assay_type>  (378) 
B

>  <src_id>  (378) 
1

>  <ligand_efficiency>  (378) 
{u'le': u'0.43', u'bei': u'23.38', u'sei': u'7.23', u'lle': u'5.11'}

>  <standard_flag>  (378) 
True

>  <molecule_chembl_id>  (378) 
CHEMBL1241581

>  <target_organism>  (378) 
Homo sapiens

>  <standard_units>  (378) 
nM

>  <record_id>  (378) 
952387

>  <document_chembl_id>  (378) 
CHEMBL1240340

>  <bao_format>  (378) 
BAO_0000357

>  <data_validity_description>  (378) 
None

>  <activity_id>  (378) 
3442446

>  <standard_type>  (378) 
IC50

>  <target_chembl_id>  (378) 
CHEMBL1862

>  <data_validity_comment>  (378) 
None

>  <published_value>  (378) 
0.026

>  <document_year>  (378) 
2008

>  <target_pref_name>  (378) 
Tyrosine-protein kinase ABL

>  <assay_chembl_id>  (378) 
CHEMBL1243972

>  <standard_relation>  (378) 
=

>  <assay_description>  (378) 
Inhibition of recombinant c-Abl by radioactive phosphotransfer assay in presence of 10 uM ATP

>  <published_relation>  (378) 
=

>  <standard_value>  (378) 
26

>  <qudt_units>  (378) 
http://www.openphacts.org/units/Nanomolar

>  <target_tax_id>  (378) 
9606

>  <bao_label>  (378) 
single protein format

>  <published_units>  (378) 
uM

>  <pchembl_value>  (378) 
7.59

>  <published_type>  (378) 
IC50

>  <activity_comment>  (378) 
None

$$$$

     RDKit          

 21 23  0  0  0  0  0  0  0  0999 V2000
    0.0000    0.0000    0.0000 C   0  0  0  0  0  0  0  0  0  0  0  0
    0.0000    0.0000    0.0000 C   0  0  0  0  0  0  0  0  0  0  0  0
    0.0000    0.0000    0.0000 C   0  0  0  0  0  0  0  0  0  0  0  0
    0.0000    0.0000    0.0000 N   0  0  0  0  0  0  0  0  0  0  0  0
    0.0000    0.0000    0.0000 N   0  0  0  0  0  0  0  0  0  0  0  0
    0.0000    0.0000    0.0000 C   0  0  0  0  0  0  0  0  0  0  0  0
    0.0000    0.0000    0.0000 C   0  0  0  0  0  0  0  0  0  0  0  0
    0.0000    0.0000    0.0000 C   0  0  0  0  0  0  0  0  0  0  0  0
    0.0000    0.0000    0.0000 C   0  0  0  0  0  0  0  0  0  0  0  0
    0.0000    0.0000    0.0000 C   0  0  0  0  0  0  0  0  0  0  0  0
    0.0000    0.0000    0.0000 C   0  0  0  0  0  0  0  0  0  0  0  0
    0.0000    0.0000    0.0000 C   0  0  0  0  0  0  0  0  0  0  0  0
    0.0000    0.0000    0.0000 O   0  0  0  0  0  0  0  0  0  0  0  0
    0.0000    0.0000    0.0000 C   0  0  0  0  0  0  0  0  0  0  0  0
    0.0000    0.0000    0.0000 C   0  0  0  0  0  0  0  0  0  0  0  0
    0.0000    0.0000    0.0000 C   0  0  0  0  0  0  0  0  0  0  0  0
    0.0000    0.0000    0.0000 N   0  0  0  0  0  0  0  0  0  0  0  0
    0.0000    0.0000    0.0000 N   0  0  0  0  0  0  0  0  0  0  0  0
    0.0000    0.0000    0.0000 C   0  0  0  0  0  0  0  0  0  0  0  0
    0.0000    0.0000    0.0000 N   0  0  0  0  0  0  0  0  0  0  0  0
    0.0000    0.0000    0.0000 C   0  0  0  0  0  0  0  0  0  0  0  0
  1  2  1  0
  2  3  1  0
  2  4  1  0
  4  5  1  0
  5  6  2  0
  6  7  1  0
  7  8  2  0
  8  9  1  0
  9 10  2  0
 10 11  1  0
 11 12  1  0
 12 13  1  0
 11 14  2  0
  6 15  1  0
 15 16  2  0
 16 17  1  0
 16 18  1  0
 18 19  2  0
 19 20  1  0
 20 21  2  0
 21  4  1  0
 14  7  1  0
 21 15  1  0
M  END
>  <pIC50>  (379) 
5.75

>  <ChEMBL_ID>  (379) 
CHEMBL1241582

>  <document_journal>  (379) 
Nat. Chem. Biol.

>  <bao_endpoint>  (379) 
BAO_0000190

>  <potential_duplicate>  (379) 
False

>  <uo_units>  (379) 
UO_0000065

>  <canonical_smiles>  (379) 
CC(C)n1nc(c2cccc(CO)c2)c3c(N)ncnc13

>  <parent_molecule_chembl_id>  (379) 
CHEMBL1241582

>  <assay_type>  (379) 
B

>  <src_id>  (379) 
1

>  <ligand_efficiency>  (379) 
{u'le': u'0.37', u'bei': u'20.28', u'sei': u'6.39', u'lle': u'3.78'}

>  <standard_flag>  (379) 
True

>  <molecule_chembl_id>  (379) 
CHEMBL1241582

>  <target_organism>  (379) 
Homo sapiens

>  <standard_units>  (379) 
nM

>  <record_id>  (379) 
952388

>  <document_chembl_id>  (379) 
CHEMBL1240340

>  <bao_format>  (379) 
BAO_0000357

>  <data_validity_description>  (379) 
None

>  <activity_id>  (379) 
3442516

>  <standard_type>  (379) 
IC50

>  <target_chembl_id>  (379) 
CHEMBL1862

>  <data_validity_comment>  (379) 
None

>  <published_value>  (379) 
1.8

>  <document_year>  (379) 
2008

>  <target_pref_name>  (379) 
Tyrosine-protein kinase ABL

>  <assay_chembl_id>  (379) 
CHEMBL1243972

>  <standard_relation>  (379) 
=

>  <assay_description>  (379) 
Inhibition of recombinant c-Abl by radioactive phosphotransfer assay in presence of 10 uM ATP

>  <published_relation>  (379) 
=

>  <standard_value>  (379) 
1800

>  <qudt_units>  (379) 
http://www.openphacts.org/units/Nanomolar

>  <target_tax_id>  (379) 
9606

>  <bao_label>  (379) 
single protein format

>  <published_units>  (379) 
uM

>  <pchembl_value>  (379) 
5.75

>  <published_type>  (379) 
IC50

>  <activity_comment>  (379) 
None

$$$$

     RDKit          

 22 24  0  0  0  0  0  0  0  0999 V2000
    0.0000    0.0000    0.0000 C   0  0  0  0  0  0  0  0  0  0  0  0
    0.0000    0.0000    0.0000 C   0  0  0  0  0  0  0  0  0  0  0  0
    0.0000    0.0000    0.0000 C   0  0  0  0  0  0  0  0  0  0  0  0
    0.0000    0.0000    0.0000 N   0  0  0  0  0  0  0  0  0  0  0  0
    0.0000    0.0000    0.0000 N   0  0  0  0  0  0  0  0  0  0  0  0
    0.0000    0.0000    0.0000 C   0  0  0  0  0  0  0  0  0  0  0  0
    0.0000    0.0000    0.0000 C   0  0  0  0  0  0  0  0  0  0  0  0
    0.0000    0.0000    0.0000 C   0  0  0  0  0  0  0  0  0  0  0  0
    0.0000    0.0000    0.0000 C   0  0  0  0  0  0  0  0  0  0  0  0
    0.0000    0.0000    0.0000 C   0  0  0  0  0  0  0  0  0  0  0  0
    0.0000    0.0000    0.0000 C   0  0  0  0  0  0  0  0  0  0  0  0
    0.0000    0.0000    0.0000 C   0  0  0  0  0  0  0  0  0  0  0  0
    0.0000    0.0000    0.0000 C   0  0  0  0  0  0  0  0  0  0  0  0
    0.0000    0.0000    0.0000 N   0  0  0  0  0  0  0  0  0  0  0  0
    0.0000    0.0000    0.0000 C   0  0  0  0  0  0  0  0  0  0  0  0
    0.0000    0.0000    0.0000 C   0  0  0  0  0  0  0  0  0  0  0  0
    0.0000    0.0000    0.0000 C   0  0  0  0  0  0  0  0  0  0  0  0
    0.0000    0.0000    0.0000 N   0  0  0  0  0  0  0  0  0  0  0  0
    0.0000    0.0000    0.0000 N   0  0  0  0  0  0  0  0  0  0  0  0
    0.0000    0.0000    0.0000 C   0  0  0  0  0  0  0  0  0  0  0  0
    0.0000    0.0000    0.0000 N   0  0  0  0  0  0  0  0  0  0  0  0
    0.0000    0.0000    0.0000 C   0  0  0  0  0  0  0  0  0  0  0  0
  1  2  1  0
  2  3  1  0
  2  4  1  0
  4  5  1  0
  5  6  2  0
  6  7  1  0
  7  8  2  0
  8  9  1  0
  9 10  2  0
 10 11  1  0
 11 12  1  0
 12 13  1  0
 13 14  3  0
 11 15  2  0
  6 16  1  0
 16 17  2  0
 17 18  1  0
 17 19  1  0
 19 20  2  0
 20 21  1  0
 21 22  2  0
 22  4  1  0
 15  7  1  0
 22 16  1  0
M  END
>  <pIC50>  (380) 
4.3

>  <ChEMBL_ID>  (380) 
CHEMBL1241583

>  <document_journal>  (380) 
Nat. Chem. Biol.

>  <bao_endpoint>  (380) 
BAO_0000190

>  <potential_duplicate>  (380) 
False

>  <uo_units>  (380) 
UO_0000065

>  <canonical_smiles>  (380) 
CC(C)n1nc(c2cccc(CC#N)c2)c3c(N)ncnc13

>  <parent_molecule_chembl_id>  (380) 
CHEMBL1241583

>  <assay_type>  (380) 
B

>  <src_id>  (380) 
1

>  <ligand_efficiency>  (380) 
{u'le': u'0.27', u'bei': u'14.71', u'sei': u'4.6', u'lle': u'1.82'}

>  <standard_flag>  (380) 
True

>  <molecule_chembl_id>  (380) 
CHEMBL1241583

>  <target_organism>  (380) 
Homo sapiens

>  <standard_units>  (380) 
nM

>  <record_id>  (380) 
952389

>  <document_chembl_id>  (380) 
CHEMBL1240340

>  <bao_format>  (380) 
BAO_0000357

>  <data_validity_description>  (380) 
None

>  <activity_id>  (380) 
3442530

>  <standard_type>  (380) 
IC50

>  <target_chembl_id>  (380) 
CHEMBL1862

>  <data_validity_comment>  (380) 
None

>  <published_value>  (380) 
50

>  <document_year>  (380) 
2008

>  <target_pref_name>  (380) 
Tyrosine-protein kinase ABL

>  <assay_chembl_id>  (380) 
CHEMBL1243972

>  <standard_relation>  (380) 
=

>  <assay_description>  (380) 
Inhibition of recombinant c-Abl by radioactive phosphotransfer assay in presence of 10 uM ATP

>  <published_relation>  (380) 
=

>  <standard_value>  (380) 
50000

>  <qudt_units>  (380) 
http://www.openphacts.org/units/Nanomolar

>  <target_tax_id>  (380) 
9606

>  <bao_label>  (380) 
single protein format

>  <published_units>  (380) 
uM

>  <pchembl_value>  (380) 
4.3

>  <published_type>  (380) 
IC50

>  <activity_comment>  (380) 
None

$$$$

     RDKit          

 22 24  0  0  0  0  0  0  0  0999 V2000
    0.0000    0.0000    0.0000 C   0  0  0  0  0  0  0  0  0  0  0  0
    0.0000    0.0000    0.0000 C   0  0  0  0  0  0  0  0  0  0  0  0
    0.0000    0.0000    0.0000 C   0  0  0  0  0  0  0  0  0  0  0  0
    0.0000    0.0000    0.0000 N   0  0  0  0  0  0  0  0  0  0  0  0
    0.0000    0.0000    0.0000 N   0  0  0  0  0  0  0  0  0  0  0  0
    0.0000    0.0000    0.0000 C   0  0  0  0  0  0  0  0  0  0  0  0
    0.0000    0.0000    0.0000 C   0  0  0  0  0  0  0  0  0  0  0  0
    0.0000    0.0000    0.0000 C   0  0  0  0  0  0  0  0  0  0  0  0
    0.0000    0.0000    0.0000 C   0  0  0  0  0  0  0  0  0  0  0  0
    0.0000    0.0000    0.0000 C   0  0  0  0  0  0  0  0  0  0  0  0
    0.0000    0.0000    0.0000 C   0  0  0  0  0  0  0  0  0  0  0  0
    0.0000    0.0000    0.0000 C   0  0  0  0  0  0  0  0  0  0  0  0
    0.0000    0.0000    0.0000 N   0  0  0  0  0  0  0  0  0  0  0  0
    0.0000    0.0000    0.0000 C   0  0  0  0  0  0  0  0  0  0  0  0
    0.0000    0.0000    0.0000 C   0  0  0  0  0  0  0  0  0  0  0  0
    0.0000    0.0000    0.0000 C   0  0  0  0  0  0  0  0  0  0  0  0
    0.0000    0.0000    0.0000 C   0  0  0  0  0  0  0  0  0  0  0  0
    0.0000    0.0000    0.0000 N   0  0  0  0  0  0  0  0  0  0  0  0
    0.0000    0.0000    0.0000 N   0  0  0  0  0  0  0  0  0  0  0  0
    0.0000    0.0000    0.0000 C   0  0  0  0  0  0  0  0  0  0  0  0
    0.0000    0.0000    0.0000 N   0  0  0  0  0  0  0  0  0  0  0  0
    0.0000    0.0000    0.0000 C   0  0  0  0  0  0  0  0  0  0  0  0
  1  2  1  0
  2  3  1  0
  2  4  1  0
  4  5  1  0
  5  6  2  0
  6  7  1  0
  7  8  2  0
  8  9  1  0
  9 10  2  0
 10 11  1  0
 11 12  1  0
 12 13  3  0
 10 14  1  0
 14 15  2  0
  6 16  1  0
 16 17  2  0
 17 18  1  0
 17 19  1  0
 19 20  2  0
 20 21  1  0
 21 22  2  0
 22  4  1  0
 15  7  1  0
 22 16  1  0
M  END
>  <pIC50>  (381) 
5.1

>  <ChEMBL_ID>  (381) 
CHEMBL1240545

>  <document_journal>  (381) 
Nat. Chem. Biol.

>  <bao_endpoint>  (381) 
BAO_0000190

>  <potential_duplicate>  (381) 
False

>  <uo_units>  (381) 
UO_0000065

>  <canonical_smiles>  (381) 
CC(C)n1nc(c2ccc(CC#N)cc2)c3c(N)ncnc13

>  <parent_molecule_chembl_id>  (381) 
CHEMBL1240545

>  <assay_type>  (381) 
B

>  <src_id>  (381) 
1

>  <ligand_efficiency>  (381) 
{u'le': u'0.32', u'bei': u'17.45', u'sei': u'5.46', u'lle': u'2.62'}

>  <standard_flag>  (381) 
True

>  <molecule_chembl_id>  (381) 
CHEMBL1240545

>  <target_organism>  (381) 
Homo sapiens

>  <standard_units>  (381) 
nM

>  <record_id>  (381) 
952525

>  <document_chembl_id>  (381) 
CHEMBL1240340

>  <bao_format>  (381) 
BAO_0000357

>  <data_validity_description>  (381) 
None

>  <activity_id>  (381) 
3442544

>  <standard_type>  (381) 
IC50

>  <target_chembl_id>  (381) 
CHEMBL1862

>  <data_validity_comment>  (381) 
None

>  <published_value>  (381) 
7.9

>  <document_year>  (381) 
2008

>  <target_pref_name>  (381) 
Tyrosine-protein kinase ABL

>  <assay_chembl_id>  (381) 
CHEMBL1243972

>  <standard_relation>  (381) 
=

>  <assay_description>  (381) 
Inhibition of recombinant c-Abl by radioactive phosphotransfer assay in presence of 10 uM ATP

>  <published_relation>  (381) 
=

>  <standard_value>  (381) 
7900

>  <qudt_units>  (381) 
http://www.openphacts.org/units/Nanomolar

>  <target_tax_id>  (381) 
9606

>  <bao_label>  (381) 
single protein format

>  <published_units>  (381) 
uM

>  <pchembl_value>  (381) 
5.1

>  <published_type>  (381) 
IC50

>  <activity_comment>  (381) 
None

$$$$

     RDKit          

 21 23  0  0  0  0  0  0  0  0999 V2000
    0.0000    0.0000    0.0000 C   0  0  0  0  0  0  0  0  0  0  0  0
    0.0000    0.0000    0.0000 C   0  0  0  0  0  0  0  0  0  0  0  0
    0.0000    0.0000    0.0000 C   0  0  0  0  0  0  0  0  0  0  0  0
    0.0000    0.0000    0.0000 N   0  0  0  0  0  0  0  0  0  0  0  0
    0.0000    0.0000    0.0000 N   0  0  0  0  0  0  0  0  0  0  0  0
    0.0000    0.0000    0.0000 C   0  0  0  0  0  0  0  0  0  0  0  0
    0.0000    0.0000    0.0000 C   0  0  0  0  0  0  0  0  0  0  0  0
    0.0000    0.0000    0.0000 C   0  0  0  0  0  0  0  0  0  0  0  0
    0.0000    0.0000    0.0000 C   0  0  0  0  0  0  0  0  0  0  0  0
    0.0000    0.0000    0.0000 C   0  0  0  0  0  0  0  0  0  0  0  0
    0.0000    0.0000    0.0000 C   0  0  0  0  0  0  0  0  0  0  0  0
    0.0000    0.0000    0.0000 C   0  0  0  0  0  0  0  0  0  0  0  0
    0.0000    0.0000    0.0000 C   0  0  0  0  0  0  0  0  0  0  0  0
    0.0000    0.0000    0.0000 N   0  0  0  0  0  0  0  0  0  0  0  0
    0.0000    0.0000    0.0000 C   0  0  0  0  0  0  0  0  0  0  0  0
    0.0000    0.0000    0.0000 C   0  0  0  0  0  0  0  0  0  0  0  0
    0.0000    0.0000    0.0000 N   0  0  0  0  0  0  0  0  0  0  0  0
    0.0000    0.0000    0.0000 N   0  0  0  0  0  0  0  0  0  0  0  0
    0.0000    0.0000    0.0000 C   0  0  0  0  0  0  0  0  0  0  0  0
    0.0000    0.0000    0.0000 N   0  0  0  0  0  0  0  0  0  0  0  0
    0.0000    0.0000    0.0000 C   0  0  0  0  0  0  0  0  0  0  0  0
  1  2  1  0
  2  3  1  0
  2  4  1  0
  4  5  1  0
  5  6  2  0
  6  7  1  0
  7  8  2  0
  8  9  1  0
  9 10  2  0
 10 11  1  0
 11 12  2  0
 11 13  1  0
 13 14  3  0
  6 15  1  0
 15 16  2  0
 16 17  1  0
 16 18  1  0
 18 19  2  0
 19 20  1  0
 20 21  2  0
 21  4  1  0
 12  7  1  0
 21 15  1  0
M  END
>  <pIC50>  (382) 
4.77

>  <ChEMBL_ID>  (382) 
CHEMBL1241679

>  <document_journal>  (382) 
Nat. Chem. Biol.

>  <bao_endpoint>  (382) 
BAO_0000190

>  <potential_duplicate>  (382) 
False

>  <uo_units>  (382) 
UO_0000065

>  <canonical_smiles>  (382) 
CC(C)n1nc(c2cccc(c2)C#N)c3c(N)ncnc13

>  <parent_molecule_chembl_id>  (382) 
CHEMBL1241679

>  <assay_type>  (382) 
B

>  <src_id>  (382) 
1

>  <ligand_efficiency>  (382) 
{u'le': u'0.31', u'bei': u'17.14', u'sei': u'5.11', u'lle': u'2.33'}

>  <standard_flag>  (382) 
True

>  <molecule_chembl_id>  (382) 
CHEMBL1241679

>  <target_organism>  (382) 
Homo sapiens

>  <standard_units>  (382) 
nM

>  <record_id>  (382) 
952526

>  <document_chembl_id>  (382) 
CHEMBL1240340

>  <bao_format>  (382) 
BAO_0000357

>  <data_validity_description>  (382) 
None

>  <activity_id>  (382) 
3442557

>  <standard_type>  (382) 
IC50

>  <target_chembl_id>  (382) 
CHEMBL1862

>  <data_validity_comment>  (382) 
None

>  <published_value>  (382) 
17

>  <document_year>  (382) 
2008

>  <target_pref_name>  (382) 
Tyrosine-protein kinase ABL

>  <assay_chembl_id>  (382) 
CHEMBL1243972

>  <standard_relation>  (382) 
=

>  <assay_description>  (382) 
Inhibition of recombinant c-Abl by radioactive phosphotransfer assay in presence of 10 uM ATP

>  <published_relation>  (382) 
=

>  <standard_value>  (382) 
17000

>  <qudt_units>  (382) 
http://www.openphacts.org/units/Nanomolar

>  <target_tax_id>  (382) 
9606

>  <bao_label>  (382) 
single protein format

>  <published_units>  (382) 
uM

>  <pchembl_value>  (382) 
4.77

>  <published_type>  (382) 
IC50

>  <activity_comment>  (382) 
None

$$$$

     RDKit          

 22 24  0  0  0  0  0  0  0  0999 V2000
    0.0000    0.0000    0.0000 C   0  0  0  0  0  0  0  0  0  0  0  0
    0.0000    0.0000    0.0000 C   0  0  0  0  0  0  0  0  0  0  0  0
    0.0000    0.0000    0.0000 C   0  0  0  0  0  0  0  0  0  0  0  0
    0.0000    0.0000    0.0000 N   0  0  0  0  0  0  0  0  0  0  0  0
    0.0000    0.0000    0.0000 N   0  0  0  0  0  0  0  0  0  0  0  0
    0.0000    0.0000    0.0000 C   0  0  0  0  0  0  0  0  0  0  0  0
    0.0000    0.0000    0.0000 C   0  0  0  0  0  0  0  0  0  0  0  0
    0.0000    0.0000    0.0000 C   0  0  0  0  0  0  0  0  0  0  0  0
    0.0000    0.0000    0.0000 C   0  0  0  0  0  0  0  0  0  0  0  0
    0.0000    0.0000    0.0000 C   0  0  0  0  0  0  0  0  0  0  0  0
    0.0000    0.0000    0.0000 F   0  0  0  0  0  0  0  0  0  0  0  0
    0.0000    0.0000    0.0000 C   0  0  0  0  0  0  0  0  0  0  0  0
    0.0000    0.0000    0.0000 C   0  0  0  0  0  0  0  0  0  0  0  0
    0.0000    0.0000    0.0000 C   0  0  0  0  0  0  0  0  0  0  0  0
    0.0000    0.0000    0.0000 N   0  0  0  0  0  0  0  0  0  0  0  0
    0.0000    0.0000    0.0000 C   0  0  0  0  0  0  0  0  0  0  0  0
    0.0000    0.0000    0.0000 C   0  0  0  0  0  0  0  0  0  0  0  0
    0.0000    0.0000    0.0000 N   0  0  0  0  0  0  0  0  0  0  0  0
    0.0000    0.0000    0.0000 N   0  0  0  0  0  0  0  0  0  0  0  0
    0.0000    0.0000    0.0000 C   0  0  0  0  0  0  0  0  0  0  0  0
    0.0000    0.0000    0.0000 N   0  0  0  0  0  0  0  0  0  0  0  0
    0.0000    0.0000    0.0000 C   0  0  0  0  0  0  0  0  0  0  0  0
  1  2  1  0
  2  3  1  0
  2  4  1  0
  4  5  1  0
  5  6  2  0
  6  7  1  0
  7  8  2  0
  8  9  1  0
  9 10  2  0
 10 11  1  0
 10 12  1  0
 12 13  2  0
 12 14  1  0
 14 15  3  0
  6 16  1  0
 16 17  2  0
 17 18  1  0
 17 19  1  0
 19 20  2  0
 20 21  1  0
 21 22  2  0
 22  4  1  0
 13  7  1  0
 22 16  1  0
M  END
>  <pIC50>  (383) 
5.47

>  <ChEMBL_ID>  (383) 
CHEMBL1241680

>  <document_journal>  (383) 
Nat. Chem. Biol.

>  <bao_endpoint>  (383) 
BAO_0000190

>  <potential_duplicate>  (383) 
False

>  <uo_units>  (383) 
UO_0000065

>  <canonical_smiles>  (383) 
CC(C)n1nc(c2ccc(F)c(c2)C#N)c3c(N)ncnc13

>  <parent_molecule_chembl_id>  (383) 
CHEMBL1241680

>  <assay_type>  (383) 
B

>  <src_id>  (383) 
1

>  <ligand_efficiency>  (383) 
{u'le': u'0.34', u'bei': u'18.46', u'sei': u'5.85', u'lle': u'2.82'}

>  <standard_flag>  (383) 
True

>  <molecule_chembl_id>  (383) 
CHEMBL1241680

>  <target_organism>  (383) 
Homo sapiens

>  <standard_units>  (383) 
nM

>  <record_id>  (383) 
952527

>  <document_chembl_id>  (383) 
CHEMBL1240340

>  <bao_format>  (383) 
BAO_0000357

>  <data_validity_description>  (383) 
None

>  <activity_id>  (383) 
3442571

>  <standard_type>  (383) 
IC50

>  <target_chembl_id>  (383) 
CHEMBL1862

>  <data_validity_comment>  (383) 
None

>  <published_value>  (383) 
3.4

>  <document_year>  (383) 
2008

>  <target_pref_name>  (383) 
Tyrosine-protein kinase ABL

>  <assay_chembl_id>  (383) 
CHEMBL1243972

>  <standard_relation>  (383) 
=

>  <assay_description>  (383) 
Inhibition of recombinant c-Abl by radioactive phosphotransfer assay in presence of 10 uM ATP

>  <published_relation>  (383) 
=

>  <standard_value>  (383) 
3400

>  <qudt_units>  (383) 
http://www.openphacts.org/units/Nanomolar

>  <target_tax_id>  (383) 
9606

>  <bao_label>  (383) 
single protein format

>  <published_units>  (383) 
uM

>  <pchembl_value>  (383) 
5.47

>  <published_type>  (383) 
IC50

>  <activity_comment>  (383) 
None

$$$$

     RDKit          

 22 24  0  0  0  0  0  0  0  0999 V2000
    0.0000    0.0000    0.0000 C   0  0  0  0  0  0  0  0  0  0  0  0
    0.0000    0.0000    0.0000 C   0  0  0  0  0  0  0  0  0  0  0  0
    0.0000    0.0000    0.0000 C   0  0  0  0  0  0  0  0  0  0  0  0
    0.0000    0.0000    0.0000 N   0  0  0  0  0  0  0  0  0  0  0  0
    0.0000    0.0000    0.0000 N   0  0  0  0  0  0  0  0  0  0  0  0
    0.0000    0.0000    0.0000 C   0  0  0  0  0  0  0  0  0  0  0  0
    0.0000    0.0000    0.0000 C   0  0  0  0  0  0  0  0  0  0  0  0
    0.0000    0.0000    0.0000 C   0  0  0  0  0  0  0  0  0  0  0  0
    0.0000    0.0000    0.0000 C   0  0  0  0  0  0  0  0  0  0  0  0
    0.0000    0.0000    0.0000 C   0  0  0  0  0  0  0  0  0  0  0  0
    0.0000    0.0000    0.0000 C   0  0  0  0  0  0  0  0  0  0  0  0
    0.0000    0.0000    0.0000 N   0  0  0  0  0  0  0  0  0  0  0  0
    0.0000    0.0000    0.0000 C   0  0  0  0  0  0  0  0  0  0  0  0
    0.0000    0.0000    0.0000 F   0  0  0  0  0  0  0  0  0  0  0  0
    0.0000    0.0000    0.0000 C   0  0  0  0  0  0  0  0  0  0  0  0
    0.0000    0.0000    0.0000 C   0  0  0  0  0  0  0  0  0  0  0  0
    0.0000    0.0000    0.0000 C   0  0  0  0  0  0  0  0  0  0  0  0
    0.0000    0.0000    0.0000 N   0  0  0  0  0  0  0  0  0  0  0  0
    0.0000    0.0000    0.0000 N   0  0  0  0  0  0  0  0  0  0  0  0
    0.0000    0.0000    0.0000 C   0  0  0  0  0  0  0  0  0  0  0  0
    0.0000    0.0000    0.0000 N   0  0  0  0  0  0  0  0  0  0  0  0
    0.0000    0.0000    0.0000 C   0  0  0  0  0  0  0  0  0  0  0  0
  1  2  1  0
  2  3  1  0
  2  4  1  0
  4  5  1  0
  5  6  2  0
  6  7  1  0
  7  8  2  0
  8  9  1  0
  9 10  2  0
 10 11  1  0
 11 12  3  0
 10 13  1  0
 13 14  1  0
 13 15  2  0
  6 16  1  0
 16 17  2  0
 17 18  1  0
 17 19  1  0
 19 20  2  0
 20 21  1  0
 21 22  2  0
 22  4  1  0
 15  7  1  0
 22 16  1  0
M  END
>  <pIC50>  (384) 
5.3

>  <ChEMBL_ID>  (384) 
CHEMBL1241771

>  <document_journal>  (384) 
Nat. Chem. Biol.

>  <bao_endpoint>  (384) 
BAO_0000190

>  <potential_duplicate>  (384) 
False

>  <uo_units>  (384) 
UO_0000065

>  <canonical_smiles>  (384) 
CC(C)n1nc(c2ccc(C#N)c(F)c2)c3c(N)ncnc13

>  <parent_molecule_chembl_id>  (384) 
CHEMBL1241771

>  <assay_type>  (384) 
B

>  <src_id>  (384) 
1

>  <ligand_efficiency>  (384) 
{u'le': u'0.33', u'bei': u'17.89', u'sei': u'5.68', u'lle': u'2.65'}

>  <standard_flag>  (384) 
True

>  <molecule_chembl_id>  (384) 
CHEMBL1241771

>  <target_organism>  (384) 
Homo sapiens

>  <standard_units>  (384) 
nM

>  <record_id>  (384) 
952663

>  <document_chembl_id>  (384) 
CHEMBL1240340

>  <bao_format>  (384) 
BAO_0000357

>  <data_validity_description>  (384) 
None

>  <activity_id>  (384) 
3442585

>  <standard_type>  (384) 
IC50

>  <target_chembl_id>  (384) 
CHEMBL1862

>  <data_validity_comment>  (384) 
None

>  <published_value>  (384) 
5

>  <document_year>  (384) 
2008

>  <target_pref_name>  (384) 
Tyrosine-protein kinase ABL

>  <assay_chembl_id>  (384) 
CHEMBL1243972

>  <standard_relation>  (384) 
=

>  <assay_description>  (384) 
Inhibition of recombinant c-Abl by radioactive phosphotransfer assay in presence of 10 uM ATP

>  <published_relation>  (384) 
=

>  <standard_value>  (384) 
5000

>  <qudt_units>  (384) 
http://www.openphacts.org/units/Nanomolar

>  <target_tax_id>  (384) 
9606

>  <bao_label>  (384) 
single protein format

>  <published_units>  (384) 
uM

>  <pchembl_value>  (384) 
5.3

>  <published_type>  (384) 
IC50

>  <activity_comment>  (384) 
None

$$$$

     RDKit          

 21 23  0  0  0  0  0  0  0  0999 V2000
    0.0000    0.0000    0.0000 C   0  0  0  0  0  0  0  0  0  0  0  0
    0.0000    0.0000    0.0000 C   0  0  0  0  0  0  0  0  0  0  0  0
    0.0000    0.0000    0.0000 C   0  0  0  0  0  0  0  0  0  0  0  0
    0.0000    0.0000    0.0000 N   0  0  0  0  0  0  0  0  0  0  0  0
    0.0000    0.0000    0.0000 N   0  0  0  0  0  0  0  0  0  0  0  0
    0.0000    0.0000    0.0000 C   0  0  0  0  0  0  0  0  0  0  0  0
    0.0000    0.0000    0.0000 C   0  0  0  0  0  0  0  0  0  0  0  0
    0.0000    0.0000    0.0000 C   0  0  0  0  0  0  0  0  0  0  0  0
    0.0000    0.0000    0.0000 C   0  0  0  0  0  0  0  0  0  0  0  0
    0.0000    0.0000    0.0000 C   0  0  0  0  0  0  0  0  0  0  0  0
    0.0000    0.0000    0.0000 N   0  0  0  0  0  0  0  0  0  0  0  0
    0.0000    0.0000    0.0000 C   0  0  0  0  0  0  0  0  0  0  0  0
    0.0000    0.0000    0.0000 C   0  0  0  0  0  0  0  0  0  0  0  0
    0.0000    0.0000    0.0000 N   0  0  0  0  0  0  0  0  0  0  0  0
    0.0000    0.0000    0.0000 C   0  0  0  0  0  0  0  0  0  0  0  0
    0.0000    0.0000    0.0000 C   0  0  0  0  0  0  0  0  0  0  0  0
    0.0000    0.0000    0.0000 N   0  0  0  0  0  0  0  0  0  0  0  0
    0.0000    0.0000    0.0000 N   0  0  0  0  0  0  0  0  0  0  0  0
    0.0000    0.0000    0.0000 C   0  0  0  0  0  0  0  0  0  0  0  0
    0.0000    0.0000    0.0000 N   0  0  0  0  0  0  0  0  0  0  0  0
    0.0000    0.0000    0.0000 C   0  0  0  0  0  0  0  0  0  0  0  0
  1  2  1  0
  2  3  1  0
  2  4  1  0
  4  5  1  0
  5  6  2  0
  6  7  1  0
  7  8  2  0
  8  9  1  0
  9 10  2  0
 10 11  1  0
 11 12  2  0
 10 13  1  0
 13 14  3  0
  6 15  1  0
 15 16  2  0
 16 17  1  0
 16 18  1  0
 18 19  2  0
 19 20  1  0
 20 21  2  0
 21  4  1  0
 12  7  1  0
 21 15  1  0
M  END
>  <pIC50>  (385) 
4.3

>  <ChEMBL_ID>  (385) 
CHEMBL1241772

>  <document_journal>  (385) 
Nat. Chem. Biol.

>  <bao_endpoint>  (385) 
BAO_0000190

>  <potential_duplicate>  (385) 
False

>  <uo_units>  (385) 
UO_0000065

>  <canonical_smiles>  (385) 
CC(C)n1nc(c2ccc(nc2)C#N)c3c(N)ncnc13

>  <parent_molecule_chembl_id>  (385) 
CHEMBL1241772

>  <assay_type>  (385) 
B

>  <src_id>  (385) 
1

>  <ligand_efficiency>  (385) 
{u'le': u'0.28', u'bei': u'15.4', u'sei': u'4.05', u'lle': u'2.58'}

>  <standard_flag>  (385) 
True

>  <molecule_chembl_id>  (385) 
CHEMBL1241772

>  <target_organism>  (385) 
Homo sapiens

>  <standard_units>  (385) 
nM

>  <record_id>  (385) 
952664

>  <document_chembl_id>  (385) 
CHEMBL1240340

>  <bao_format>  (385) 
BAO_0000357

>  <data_validity_description>  (385) 
None

>  <activity_id>  (385) 
3442599

>  <standard_type>  (385) 
IC50

>  <target_chembl_id>  (385) 
CHEMBL1862

>  <data_validity_comment>  (385) 
None

>  <published_value>  (385) 
50

>  <document_year>  (385) 
2008

>  <target_pref_name>  (385) 
Tyrosine-protein kinase ABL

>  <assay_chembl_id>  (385) 
CHEMBL1243972

>  <standard_relation>  (385) 
=

>  <assay_description>  (385) 
Inhibition of recombinant c-Abl by radioactive phosphotransfer assay in presence of 10 uM ATP

>  <published_relation>  (385) 
=

>  <standard_value>  (385) 
50000

>  <qudt_units>  (385) 
http://www.openphacts.org/units/Nanomolar

>  <target_tax_id>  (385) 
9606

>  <bao_label>  (385) 
single protein format

>  <published_units>  (385) 
uM

>  <pchembl_value>  (385) 
4.3

>  <published_type>  (385) 
IC50

>  <activity_comment>  (385) 
None

$$$$

     RDKit          

 19 21  0  0  0  0  0  0  0  0999 V2000
    0.0000    0.0000    0.0000 C   0  0  0  0  0  0  0  0  0  0  0  0
    0.0000    0.0000    0.0000 C   0  0  0  0  0  0  0  0  0  0  0  0
    0.0000    0.0000    0.0000 C   0  0  0  0  0  0  0  0  0  0  0  0
    0.0000    0.0000    0.0000 N   0  0  0  0  0  0  0  0  0  0  0  0
    0.0000    0.0000    0.0000 N   0  0  0  0  0  0  0  0  0  0  0  0
    0.0000    0.0000    0.0000 C   0  0  0  0  0  0  0  0  0  0  0  0
    0.0000    0.0000    0.0000 C   0  0  0  0  0  0  0  0  0  0  0  0
    0.0000    0.0000    0.0000 C   0  0  0  0  0  0  0  0  0  0  0  0
    0.0000    0.0000    0.0000 C   0  0  0  0  0  0  0  0  0  0  0  0
    0.0000    0.0000    0.0000 C   0  0  0  0  0  0  0  0  0  0  0  0
    0.0000    0.0000    0.0000 N   0  0  0  0  0  0  0  0  0  0  0  0
    0.0000    0.0000    0.0000 C   0  0  0  0  0  0  0  0  0  0  0  0
    0.0000    0.0000    0.0000 C   0  0  0  0  0  0  0  0  0  0  0  0
    0.0000    0.0000    0.0000 C   0  0  0  0  0  0  0  0  0  0  0  0
    0.0000    0.0000    0.0000 N   0  0  0  0  0  0  0  0  0  0  0  0
    0.0000    0.0000    0.0000 N   0  0  0  0  0  0  0  0  0  0  0  0
    0.0000    0.0000    0.0000 C   0  0  0  0  0  0  0  0  0  0  0  0
    0.0000    0.0000    0.0000 N   0  0  0  0  0  0  0  0  0  0  0  0
    0.0000    0.0000    0.0000 C   0  0  0  0  0  0  0  0  0  0  0  0
  1  2  1  0
  2  3  1  0
  2  4  1  0
  4  5  1  0
  5  6  2  0
  6  7  1  0
  7  8  2  0
  8  9  1  0
  9 10  2  0
 10 11  1  0
 11 12  2  0
  6 13  1  0
 13 14  2  0
 14 15  1  0
 14 16  1  0
 16 17  2  0
 17 18  1  0
 18 19  2  0
 19  4  1  0
 12  7  1  0
 19 13  1  0
M  END
>  <pIC50>  (386) 
4.5

>  <ChEMBL_ID>  (386) 
CHEMBL1241390

>  <document_journal>  (386) 
Nat. Chem. Biol.

>  <bao_endpoint>  (386) 
BAO_0000190

>  <potential_duplicate>  (386) 
False

>  <uo_units>  (386) 
UO_0000065

>  <canonical_smiles>  (386) 
CC(C)n1nc(c2cccnc2)c3c(N)ncnc13

>  <parent_molecule_chembl_id>  (386) 
CHEMBL1241390

>  <assay_type>  (386) 
B

>  <src_id>  (386) 
1

>  <ligand_efficiency>  (386) 
{u'le': u'0.32', u'bei': u'17.68', u'sei': u'5.45', u'lle': u'3.07'}

>  <standard_flag>  (386) 
True

>  <molecule_chembl_id>  (386) 
CHEMBL1241390

>  <target_organism>  (386) 
Homo sapiens

>  <standard_units>  (386) 
nM

>  <record_id>  (386) 
952111

>  <document_chembl_id>  (386) 
CHEMBL1240340

>  <bao_format>  (386) 
BAO_0000357

>  <data_validity_description>  (386) 
None

>  <activity_id>  (386) 
3442613

>  <standard_type>  (386) 
IC50

>  <target_chembl_id>  (386) 
CHEMBL1862

>  <data_validity_comment>  (386) 
None

>  <published_value>  (386) 
32

>  <document_year>  (386) 
2008

>  <target_pref_name>  (386) 
Tyrosine-protein kinase ABL

>  <assay_chembl_id>  (386) 
CHEMBL1243972

>  <standard_relation>  (386) 
=

>  <assay_description>  (386) 
Inhibition of recombinant c-Abl by radioactive phosphotransfer assay in presence of 10 uM ATP

>  <published_relation>  (386) 
=

>  <standard_value>  (386) 
32000

>  <qudt_units>  (386) 
http://www.openphacts.org/units/Nanomolar

>  <target_tax_id>  (386) 
9606

>  <bao_label>  (386) 
single protein format

>  <published_units>  (386) 
uM

>  <pchembl_value>  (386) 
4.5

>  <published_type>  (386) 
IC50

>  <activity_comment>  (386) 
None

$$$$

     RDKit          

 19 21  0  0  0  0  0  0  0  0999 V2000
    0.0000    0.0000    0.0000 C   0  0  0  0  0  0  0  0  0  0  0  0
    0.0000    0.0000    0.0000 C   0  0  0  0  0  0  0  0  0  0  0  0
    0.0000    0.0000    0.0000 C   0  0  0  0  0  0  0  0  0  0  0  0
    0.0000    0.0000    0.0000 N   0  0  0  0  0  0  0  0  0  0  0  0
    0.0000    0.0000    0.0000 N   0  0  0  0  0  0  0  0  0  0  0  0
    0.0000    0.0000    0.0000 C   0  0  0  0  0  0  0  0  0  0  0  0
    0.0000    0.0000    0.0000 C   0  0  0  0  0  0  0  0  0  0  0  0
    0.0000    0.0000    0.0000 C   0  0  0  0  0  0  0  0  0  0  0  0
    0.0000    0.0000    0.0000 N   0  0  0  0  0  0  0  0  0  0  0  0
    0.0000    0.0000    0.0000 C   0  0  0  0  0  0  0  0  0  0  0  0
    0.0000    0.0000    0.0000 N   0  0  0  0  0  0  0  0  0  0  0  0
    0.0000    0.0000    0.0000 C   0  0  0  0  0  0  0  0  0  0  0  0
    0.0000    0.0000    0.0000 C   0  0  0  0  0  0  0  0  0  0  0  0
    0.0000    0.0000    0.0000 C   0  0  0  0  0  0  0  0  0  0  0  0
    0.0000    0.0000    0.0000 N   0  0  0  0  0  0  0  0  0  0  0  0
    0.0000    0.0000    0.0000 N   0  0  0  0  0  0  0  0  0  0  0  0
    0.0000    0.0000    0.0000 C   0  0  0  0  0  0  0  0  0  0  0  0
    0.0000    0.0000    0.0000 N   0  0  0  0  0  0  0  0  0  0  0  0
    0.0000    0.0000    0.0000 C   0  0  0  0  0  0  0  0  0  0  0  0
  1  2  1  0
  2  3  1  0
  2  4  1  0
  4  5  1  0
  5  6  2  0
  6  7  1  0
  7  8  2  0
  8  9  1  0
  9 10  2  0
 10 11  1  0
 11 12  2  0
  6 13  1  0
 13 14  2  0
 14 15  1  0
 14 16  1  0
 16 17  2  0
 17 18  1  0
 18 19  2  0
 19  4  1  0
 12  7  1  0
 19 13  1  0
M  END
>  <pIC50>  (387) 
4.3

>  <ChEMBL_ID>  (387) 
CHEMBL1241391

>  <document_journal>  (387) 
Nat. Chem. Biol.

>  <bao_endpoint>  (387) 
BAO_0000190

>  <potential_duplicate>  (387) 
False

>  <uo_units>  (387) 
UO_0000065

>  <canonical_smiles>  (387) 
CC(C)n1nc(c2cncnc2)c3c(N)ncnc13

>  <parent_molecule_chembl_id>  (387) 
CHEMBL1241391

>  <assay_type>  (387) 
B

>  <src_id>  (387) 
1

>  <ligand_efficiency>  (387) 
{u'le': u'0.31', u'bei': u'16.85', u'sei': u'4.51', u'lle': u'3.51'}

>  <standard_flag>  (387) 
True

>  <molecule_chembl_id>  (387) 
CHEMBL1241391

>  <target_organism>  (387) 
Homo sapiens

>  <standard_units>  (387) 
nM

>  <record_id>  (387) 
952112

>  <document_chembl_id>  (387) 
CHEMBL1240340

>  <bao_format>  (387) 
BAO_0000357

>  <data_validity_description>  (387) 
None

>  <activity_id>  (387) 
3442627

>  <standard_type>  (387) 
IC50

>  <target_chembl_id>  (387) 
CHEMBL1862

>  <data_validity_comment>  (387) 
None

>  <published_value>  (387) 
50

>  <document_year>  (387) 
2008

>  <target_pref_name>  (387) 
Tyrosine-protein kinase ABL

>  <assay_chembl_id>  (387) 
CHEMBL1243972

>  <standard_relation>  (387) 
=

>  <assay_description>  (387) 
Inhibition of recombinant c-Abl by radioactive phosphotransfer assay in presence of 10 uM ATP

>  <published_relation>  (387) 
=

>  <standard_value>  (387) 
50000

>  <qudt_units>  (387) 
http://www.openphacts.org/units/Nanomolar

>  <target_tax_id>  (387) 
9606

>  <bao_label>  (387) 
single protein format

>  <published_units>  (387) 
uM

>  <pchembl_value>  (387) 
4.3

>  <published_type>  (387) 
IC50

>  <activity_comment>  (387) 
None

$$$$

     RDKit          

 22 24  0  0  0  0  0  0  0  0999 V2000
    0.0000    0.0000    0.0000 C   0  0  0  0  0  0  0  0  0  0  0  0
    0.0000    0.0000    0.0000 C   0  0  0  0  0  0  0  0  0  0  0  0
    0.0000    0.0000    0.0000 C   0  0  0  0  0  0  0  0  0  0  0  0
    0.0000    0.0000    0.0000 N   0  0  0  0  0  0  0  0  0  0  0  0
    0.0000    0.0000    0.0000 N   0  0  0  0  0  0  0  0  0  0  0  0
    0.0000    0.0000    0.0000 C   0  0  0  0  0  0  0  0  0  0  0  0
    0.0000    0.0000    0.0000 C   0  0  0  0  0  0  0  0  0  0  0  0
    0.0000    0.0000    0.0000 C   0  0  0  0  0  0  0  0  0  0  0  0
    0.0000    0.0000    0.0000 C   0  0  0  0  0  0  0  0  0  0  0  0
    0.0000    0.0000    0.0000 C   0  0  0  0  0  0  0  0  0  0  0  0
    0.0000    0.0000    0.0000 C   0  0  0  0  0  0  0  0  0  0  0  0
    0.0000    0.0000    0.0000 C   0  0  0  0  0  0  0  0  0  0  0  0
    0.0000    0.0000    0.0000 C   0  0  0  0  0  0  0  0  0  0  0  0
    0.0000    0.0000    0.0000 O   0  0  0  0  0  0  0  0  0  0  0  0
    0.0000    0.0000    0.0000 C   0  0  0  0  0  0  0  0  0  0  0  0
    0.0000    0.0000    0.0000 C   0  0  0  0  0  0  0  0  0  0  0  0
    0.0000    0.0000    0.0000 C   0  0  0  0  0  0  0  0  0  0  0  0
    0.0000    0.0000    0.0000 N   0  0  0  0  0  0  0  0  0  0  0  0
    0.0000    0.0000    0.0000 N   0  0  0  0  0  0  0  0  0  0  0  0
    0.0000    0.0000    0.0000 C   0  0  0  0  0  0  0  0  0  0  0  0
    0.0000    0.0000    0.0000 N   0  0  0  0  0  0  0  0  0  0  0  0
    0.0000    0.0000    0.0000 C   0  0  0  0  0  0  0  0  0  0  0  0
  1  2  1  0
  2  3  1  0
  2  4  1  0
  4  5  1  0
  5  6  2  0
  6  7  1  0
  7  8  2  0
  8  9  1  0
  9 10  2  0
 10 11  1  0
 11 12  2  0
 10 13  1  0
 13 14  2  0
 13 15  1  0
  6 16  1  0
 16 17  2  0
 17 18  1  0
 17 19  1  0
 19 20  2  0
 20 21  1  0
 21 22  2  0
 22  4  1  0
 12  7  1  0
 22 16  1  0
M  END
>  <pIC50>  (388) 
5.7

>  <ChEMBL_ID>  (388) 
CHEMBL1241773

>  <document_journal>  (388) 
Nat. Chem. Biol.

>  <bao_endpoint>  (388) 
BAO_0000190

>  <potential_duplicate>  (388) 
False

>  <uo_units>  (388) 
UO_0000065

>  <canonical_smiles>  (388) 
CC(C)n1nc(c2ccc(cc2)C(=O)C)c3c(N)ncnc13

>  <parent_molecule_chembl_id>  (388) 
CHEMBL1241773

>  <assay_type>  (388) 
B

>  <src_id>  (388) 
1

>  <ligand_efficiency>  (388) 
{u'le': u'0.35', u'bei': u'19.3', u'sei': u'6.57', u'lle': u'3.39'}

>  <standard_flag>  (388) 
True

>  <molecule_chembl_id>  (388) 
CHEMBL1241773

>  <target_organism>  (388) 
Homo sapiens

>  <standard_units>  (388) 
nM

>  <record_id>  (388) 
952665

>  <document_chembl_id>  (388) 
CHEMBL1240340

>  <bao_format>  (388) 
BAO_0000357

>  <data_validity_description>  (388) 
None

>  <activity_id>  (388) 
3442641

>  <standard_type>  (388) 
IC50

>  <target_chembl_id>  (388) 
CHEMBL1862

>  <data_validity_comment>  (388) 
None

>  <published_value>  (388) 
2

>  <document_year>  (388) 
2008

>  <target_pref_name>  (388) 
Tyrosine-protein kinase ABL

>  <assay_chembl_id>  (388) 
CHEMBL1243972

>  <standard_relation>  (388) 
=

>  <assay_description>  (388) 
Inhibition of recombinant c-Abl by radioactive phosphotransfer assay in presence of 10 uM ATP

>  <published_relation>  (388) 
=

>  <standard_value>  (388) 
2000

>  <qudt_units>  (388) 
http://www.openphacts.org/units/Nanomolar

>  <target_tax_id>  (388) 
9606

>  <bao_label>  (388) 
single protein format

>  <published_units>  (388) 
uM

>  <pchembl_value>  (388) 
5.7

>  <published_type>  (388) 
IC50

>  <activity_comment>  (388) 
None

$$$$

     RDKit          

 22 24  0  0  0  0  0  0  0  0999 V2000
    0.0000    0.0000    0.0000 C   0  0  0  0  0  0  0  0  0  0  0  0
    0.0000    0.0000    0.0000 C   0  0  0  0  0  0  0  0  0  0  0  0
    0.0000    0.0000    0.0000 C   0  0  0  0  0  0  0  0  0  0  0  0
    0.0000    0.0000    0.0000 N   0  0  0  0  0  0  0  0  0  0  0  0
    0.0000    0.0000    0.0000 N   0  0  0  0  0  0  0  0  0  0  0  0
    0.0000    0.0000    0.0000 C   0  0  0  0  0  0  0  0  0  0  0  0
    0.0000    0.0000    0.0000 C   0  0  0  0  0  0  0  0  0  0  0  0
    0.0000    0.0000    0.0000 C   0  0  0  0  0  0  0  0  0  0  0  0
    0.0000    0.0000    0.0000 C   0  0  0  0  0  0  0  0  0  0  0  0
    0.0000    0.0000    0.0000 C   0  0  0  0  0  0  0  0  0  0  0  0
    0.0000    0.0000    0.0000 C   0  0  0  0  0  0  0  0  0  0  0  0
    0.0000    0.0000    0.0000 O   0  0  0  0  0  0  0  0  0  0  0  0
    0.0000    0.0000    0.0000 C   0  0  0  0  0  0  0  0  0  0  0  0
    0.0000    0.0000    0.0000 F   0  0  0  0  0  0  0  0  0  0  0  0
    0.0000    0.0000    0.0000 C   0  0  0  0  0  0  0  0  0  0  0  0
    0.0000    0.0000    0.0000 C   0  0  0  0  0  0  0  0  0  0  0  0
    0.0000    0.0000    0.0000 C   0  0  0  0  0  0  0  0  0  0  0  0
    0.0000    0.0000    0.0000 N   0  0  0  0  0  0  0  0  0  0  0  0
    0.0000    0.0000    0.0000 N   0  0  0  0  0  0  0  0  0  0  0  0
    0.0000    0.0000    0.0000 C   0  0  0  0  0  0  0  0  0  0  0  0
    0.0000    0.0000    0.0000 N   0  0  0  0  0  0  0  0  0  0  0  0
    0.0000    0.0000    0.0000 C   0  0  0  0  0  0  0  0  0  0  0  0
  1  2  1  0
  2  3  1  0
  2  4  1  0
  4  5  1  0
  5  6  2  0
  6  7  1  0
  7  8  2  0
  8  9  1  0
  9 10  2  0
 10 11  1  0
 11 12  2  0
 10 13  1  0
 13 14  1  0
 13 15  2  0
  6 16  1  0
 16 17  2  0
 17 18  1  0
 17 19  1  0
 19 20  2  0
 20 21  1  0
 21 22  2  0
 22  4  1  0
 15  7  1  0
 22 16  1  0
M  END
>  <pIC50>  (389) 
6.16

>  <ChEMBL_ID>  (389) 
CHEMBL1241860

>  <document_journal>  (389) 
Nat. Chem. Biol.

>  <bao_endpoint>  (389) 
BAO_0000190

>  <potential_duplicate>  (389) 
False

>  <uo_units>  (389) 
UO_0000065

>  <canonical_smiles>  (389) 
CC(C)n1nc(c2ccc(C=O)c(F)c2)c3c(N)ncnc13

>  <parent_molecule_chembl_id>  (389) 
CHEMBL1241860

>  <assay_type>  (389) 
B

>  <src_id>  (389) 
1

>  <ligand_efficiency>  (389) 
{u'le': u'0.38', u'bei': u'20.59', u'sei': u'7.11', u'lle': u'3.63'}

>  <standard_flag>  (389) 
True

>  <molecule_chembl_id>  (389) 
CHEMBL1241860

>  <target_organism>  (389) 
Homo sapiens

>  <standard_units>  (389) 
nM

>  <record_id>  (389) 
952793

>  <document_chembl_id>  (389) 
CHEMBL1240340

>  <bao_format>  (389) 
BAO_0000357

>  <data_validity_description>  (389) 
None

>  <activity_id>  (389) 
3442655

>  <standard_type>  (389) 
IC50

>  <target_chembl_id>  (389) 
CHEMBL1862

>  <data_validity_comment>  (389) 
None

>  <published_value>  (389) 
0.688

>  <document_year>  (389) 
2008

>  <target_pref_name>  (389) 
Tyrosine-protein kinase ABL

>  <assay_chembl_id>  (389) 
CHEMBL1243972

>  <standard_relation>  (389) 
=

>  <assay_description>  (389) 
Inhibition of recombinant c-Abl by radioactive phosphotransfer assay in presence of 10 uM ATP

>  <published_relation>  (389) 
=

>  <standard_value>  (389) 
688

>  <qudt_units>  (389) 
http://www.openphacts.org/units/Nanomolar

>  <target_tax_id>  (389) 
9606

>  <bao_label>  (389) 
single protein format

>  <published_units>  (389) 
uM

>  <pchembl_value>  (389) 
6.16

>  <published_type>  (389) 
IC50

>  <activity_comment>  (389) 
None

$$$$

     RDKit          

 23 25  0  0  0  0  0  0  0  0999 V2000
    0.0000    0.0000    0.0000 C   0  0  0  0  0  0  0  0  0  0  0  0
    0.0000    0.0000    0.0000 C   0  0  0  0  0  0  0  0  0  0  0  0
    0.0000    0.0000    0.0000 C   0  0  0  0  0  0  0  0  0  0  0  0
    0.0000    0.0000    0.0000 N   0  0  0  0  0  0  0  0  0  0  0  0
    0.0000    0.0000    0.0000 N   0  0  0  0  0  0  0  0  0  0  0  0
    0.0000    0.0000    0.0000 C   0  0  0  0  0  0  0  0  0  0  0  0
    0.0000    0.0000    0.0000 C   0  0  0  0  0  0  0  0  0  0  0  0
    0.0000    0.0000    0.0000 C   0  0  0  0  0  0  0  0  0  0  0  0
    0.0000    0.0000    0.0000 C   0  0  0  0  0  0  0  0  0  0  0  0
    0.0000    0.0000    0.0000 F   0  0  0  0  0  0  0  0  0  0  0  0
    0.0000    0.0000    0.0000 C   0  0  0  0  0  0  0  0  0  0  0  0
    0.0000    0.0000    0.0000 C   0  0  0  0  0  0  0  0  0  0  0  0
    0.0000    0.0000    0.0000 O   0  0  0  0  0  0  0  0  0  0  0  0
    0.0000    0.0000    0.0000 C   0  0  0  0  0  0  0  0  0  0  0  0
    0.0000    0.0000    0.0000 F   0  0  0  0  0  0  0  0  0  0  0  0
    0.0000    0.0000    0.0000 C   0  0  0  0  0  0  0  0  0  0  0  0
    0.0000    0.0000    0.0000 C   0  0  0  0  0  0  0  0  0  0  0  0
    0.0000    0.0000    0.0000 C   0  0  0  0  0  0  0  0  0  0  0  0
    0.0000    0.0000    0.0000 N   0  0  0  0  0  0  0  0  0  0  0  0
    0.0000    0.0000    0.0000 N   0  0  0  0  0  0  0  0  0  0  0  0
    0.0000    0.0000    0.0000 C   0  0  0  0  0  0  0  0  0  0  0  0
    0.0000    0.0000    0.0000 N   0  0  0  0  0  0  0  0  0  0  0  0
    0.0000    0.0000    0.0000 C   0  0  0  0  0  0  0  0  0  0  0  0
  1  2  1  0
  2  3  1  0
  2  4  1  0
  4  5  1  0
  5  6  2  0
  6  7  1  0
  7  8  2  0
  8  9  1  0
  9 10  1  0
  9 11  2  0
 11 12  1  0
 12 13  2  0
 11 14  1  0
 14 15  1  0
 14 16  2  0
  6 17  1  0
 17 18  2  0
 18 19  1  0
 18 20  1  0
 20 21  2  0
 21 22  1  0
 22 23  2  0
 23  4  1  0
 16  7  1  0
 23 17  1  0
M  END
>  <pIC50>  (390) 
5.89

>  <ChEMBL_ID>  (390) 
CHEMBL1241861

>  <document_journal>  (390) 
Nat. Chem. Biol.

>  <bao_endpoint>  (390) 
BAO_0000190

>  <potential_duplicate>  (390) 
False

>  <uo_units>  (390) 
UO_0000065

>  <canonical_smiles>  (390) 
CC(C)n1nc(c2cc(F)c(C=O)c(F)c2)c3c(N)ncnc13

>  <parent_molecule_chembl_id>  (390) 
CHEMBL1241861

>  <assay_type>  (390) 
B

>  <src_id>  (390) 
1

>  <ligand_efficiency>  (390) 
{u'le': u'0.35', u'bei': u'18.55', u'sei': u'6.79', u'lle': u'3.15'}

>  <standard_flag>  (390) 
True

>  <molecule_chembl_id>  (390) 
CHEMBL1241861

>  <target_organism>  (390) 
Homo sapiens

>  <standard_units>  (390) 
nM

>  <record_id>  (390) 
952794

>  <document_chembl_id>  (390) 
CHEMBL1240340

>  <bao_format>  (390) 
BAO_0000357

>  <data_validity_description>  (390) 
None

>  <activity_id>  (390) 
3442669

>  <standard_type>  (390) 
IC50

>  <target_chembl_id>  (390) 
CHEMBL1862

>  <data_validity_comment>  (390) 
None

>  <published_value>  (390) 
1.3

>  <document_year>  (390) 
2008

>  <target_pref_name>  (390) 
Tyrosine-protein kinase ABL

>  <assay_chembl_id>  (390) 
CHEMBL1243972

>  <standard_relation>  (390) 
=

>  <assay_description>  (390) 
Inhibition of recombinant c-Abl by radioactive phosphotransfer assay in presence of 10 uM ATP

>  <published_relation>  (390) 
=

>  <standard_value>  (390) 
1300

>  <qudt_units>  (390) 
http://www.openphacts.org/units/Nanomolar

>  <target_tax_id>  (390) 
9606

>  <bao_label>  (390) 
single protein format

>  <published_units>  (390) 
uM

>  <pchembl_value>  (390) 
5.89

>  <published_type>  (390) 
IC50

>  <activity_comment>  (390) 
None

$$$$

     RDKit          

 23 25  0  0  0  0  0  0  0  0999 V2000
    0.0000    0.0000    0.0000 C   0  0  0  0  0  0  0  0  0  0  0  0
    0.0000    0.0000    0.0000 C   0  0  0  0  0  0  0  0  0  0  0  0
    0.0000    0.0000    0.0000 C   0  0  0  0  0  0  0  0  0  0  0  0
    0.0000    0.0000    0.0000 N   0  0  0  0  0  0  0  0  0  0  0  0
    0.0000    0.0000    0.0000 N   0  0  0  0  0  0  0  0  0  0  0  0
    0.0000    0.0000    0.0000 C   0  0  0  0  0  0  0  0  0  0  0  0
    0.0000    0.0000    0.0000 C   0  0  0  0  0  0  0  0  0  0  0  0
    0.0000    0.0000    0.0000 C   0  0  0  0  0  0  0  0  0  0  0  0
    0.0000    0.0000    0.0000 C   0  0  0  0  0  0  0  0  0  0  0  0
    0.0000    0.0000    0.0000 C   0  0  0  0  0  0  0  0  0  0  0  0
    0.0000    0.0000    0.0000 C   0  0  0  0  0  0  0  0  0  0  0  0
    0.0000    0.0000    0.0000 O   0  0  0  0  0  0  0  0  0  0  0  0
    0.0000    0.0000    0.0000 N   0  0  0  0  0  0  0  0  0  0  0  0
    0.0000    0.0000    0.0000 C   0  0  0  0  0  0  0  0  0  0  0  0
    0.0000    0.0000    0.0000 Cl  0  0  0  0  0  0  0  0  0  0  0  0
    0.0000    0.0000    0.0000 C   0  0  0  0  0  0  0  0  0  0  0  0
    0.0000    0.0000    0.0000 C   0  0  0  0  0  0  0  0  0  0  0  0
    0.0000    0.0000    0.0000 C   0  0  0  0  0  0  0  0  0  0  0  0
    0.0000    0.0000    0.0000 N   0  0  0  0  0  0  0  0  0  0  0  0
    0.0000    0.0000    0.0000 N   0  0  0  0  0  0  0  0  0  0  0  0
    0.0000    0.0000    0.0000 C   0  0  0  0  0  0  0  0  0  0  0  0
    0.0000    0.0000    0.0000 N   0  0  0  0  0  0  0  0  0  0  0  0
    0.0000    0.0000    0.0000 C   0  0  0  0  0  0  0  0  0  0  0  0
  1  2  1  0
  2  3  1  0
  2  4  1  0
  4  5  1  0
  5  6  2  0
  6  7  1  0
  7  8  2  0
  8  9  1  0
  9 10  2  0
 10 11  1  0
 11 12  2  0
 11 13  1  0
 10 14  1  0
 14 15  1  0
 14 16  2  0
  6 17  1  0
 17 18  2  0
 18 19  1  0
 18 20  1  0
 20 21  2  0
 21 22  1  0
 22 23  2  0
 23  4  1  0
 16  7  1  0
 23 17  1  0
M  END
>  <pIC50>  (391) 
4.3

>  <ChEMBL_ID>  (391) 
CHEMBL1241862

>  <document_journal>  (391) 
Nat. Chem. Biol.

>  <bao_endpoint>  (391) 
BAO_0000190

>  <potential_duplicate>  (391) 
False

>  <uo_units>  (391) 
UO_0000065

>  <canonical_smiles>  (391) 
CC(C)n1nc(c2ccc(C(=O)N)c(Cl)c2)c3c(N)ncnc13

>  <parent_molecule_chembl_id>  (391) 
CHEMBL1241862

>  <assay_type>  (391) 
B

>  <src_id>  (391) 
1

>  <ligand_efficiency>  (391) 
{u'le': u'0.26', u'bei': u'13', u'sei': u'3.82', u'lle': u'2.07'}

>  <standard_flag>  (391) 
True

>  <molecule_chembl_id>  (391) 
CHEMBL1241862

>  <target_organism>  (391) 
Homo sapiens

>  <standard_units>  (391) 
nM

>  <record_id>  (391) 
952795

>  <document_chembl_id>  (391) 
CHEMBL1240340

>  <bao_format>  (391) 
BAO_0000357

>  <data_validity_description>  (391) 
None

>  <activity_id>  (391) 
3442683

>  <standard_type>  (391) 
IC50

>  <target_chembl_id>  (391) 
CHEMBL1862

>  <data_validity_comment>  (391) 
None

>  <published_value>  (391) 
50

>  <document_year>  (391) 
2008

>  <target_pref_name>  (391) 
Tyrosine-protein kinase ABL

>  <assay_chembl_id>  (391) 
CHEMBL1243972

>  <standard_relation>  (391) 
=

>  <assay_description>  (391) 
Inhibition of recombinant c-Abl by radioactive phosphotransfer assay in presence of 10 uM ATP

>  <published_relation>  (391) 
=

>  <standard_value>  (391) 
50000

>  <qudt_units>  (391) 
http://www.openphacts.org/units/Nanomolar

>  <target_tax_id>  (391) 
9606

>  <bao_label>  (391) 
single protein format

>  <published_units>  (391) 
uM

>  <pchembl_value>  (391) 
4.3

>  <published_type>  (391) 
IC50

>  <activity_comment>  (391) 
None

$$$$

     RDKit          

 22 24  0  0  0  0  0  0  0  0999 V2000
    0.0000    0.0000    0.0000 C   0  0  0  0  0  0  0  0  0  0  0  0
    0.0000    0.0000    0.0000 C   0  0  0  0  0  0  0  0  0  0  0  0
    0.0000    0.0000    0.0000 C   0  0  0  0  0  0  0  0  0  0  0  0
    0.0000    0.0000    0.0000 N   0  0  0  0  0  0  0  0  0  0  0  0
    0.0000    0.0000    0.0000 N   0  0  0  0  0  0  0  0  0  0  0  0
    0.0000    0.0000    0.0000 C   0  0  0  0  0  0  0  0  0  0  0  0
    0.0000    0.0000    0.0000 C   0  0  0  0  0  0  0  0  0  0  0  0
    0.0000    0.0000    0.0000 C   0  0  0  0  0  0  0  0  0  0  0  0
    0.0000    0.0000    0.0000 C   0  0  0  0  0  0  0  0  0  0  0  0
    0.0000    0.0000    0.0000 C   0  0  0  0  0  0  0  0  0  0  0  0
    0.0000    0.0000    0.0000 C   0  0  0  0  0  0  0  0  0  0  0  0
    0.0000    0.0000    0.0000 C   0  0  0  0  0  0  0  0  0  0  0  0
    0.0000    0.0000    0.0000 C   0  0  0  0  0  0  0  0  0  0  0  0
    0.0000    0.0000    0.0000 O   0  0  0  0  0  0  0  0  0  0  0  0
    0.0000    0.0000    0.0000 C   0  0  0  0  0  0  0  0  0  0  0  0
    0.0000    0.0000    0.0000 C   0  0  0  0  0  0  0  0  0  0  0  0
    0.0000    0.0000    0.0000 C   0  0  0  0  0  0  0  0  0  0  0  0
    0.0000    0.0000    0.0000 N   0  0  0  0  0  0  0  0  0  0  0  0
    0.0000    0.0000    0.0000 N   0  0  0  0  0  0  0  0  0  0  0  0
    0.0000    0.0000    0.0000 C   0  0  0  0  0  0  0  0  0  0  0  0
    0.0000    0.0000    0.0000 N   0  0  0  0  0  0  0  0  0  0  0  0
    0.0000    0.0000    0.0000 C   0  0  0  0  0  0  0  0  0  0  0  0
  1  2  1  0
  2  3  1  0
  2  4  1  0
  4  5  1  0
  5  6  2  0
  6  7  1  0
  7  8  2  0
  8  9  1  0
  9 10  2  0
 10 11  1  0
 11 12  2  0
 11 13  1  0
 13 14  2  0
 13 15  1  0
  6 16  1  0
 16 17  2  0
 17 18  1  0
 17 19  1  0
 19 20  2  0
 20 21  1  0
 21 22  2  0
 22  4  1  0
 12  7  1  0
 22 16  1  0
M  END
>  <pIC50>  (392) 
4.8

>  <ChEMBL_ID>  (392) 
CHEMBL1241946

>  <document_journal>  (392) 
Nat. Chem. Biol.

>  <bao_endpoint>  (392) 
BAO_0000190

>  <potential_duplicate>  (392) 
False

>  <uo_units>  (392) 
UO_0000065

>  <canonical_smiles>  (392) 
CC(C)n1nc(c2cccc(c2)C(=O)C)c3c(N)ncnc13

>  <parent_molecule_chembl_id>  (392) 
CHEMBL1241946

>  <assay_type>  (392) 
B

>  <src_id>  (392) 
1

>  <ligand_efficiency>  (392) 
{u'le': u'0.3', u'bei': u'16.24', u'sei': u'5.53', u'lle': u'2.49'}

>  <standard_flag>  (392) 
True

>  <molecule_chembl_id>  (392) 
CHEMBL1241946

>  <target_organism>  (392) 
Homo sapiens

>  <standard_units>  (392) 
nM

>  <record_id>  (392) 
952925

>  <document_chembl_id>  (392) 
CHEMBL1240340

>  <bao_format>  (392) 
BAO_0000357

>  <data_validity_description>  (392) 
None

>  <activity_id>  (392) 
3442697

>  <standard_type>  (392) 
IC50

>  <target_chembl_id>  (392) 
CHEMBL1862

>  <data_validity_comment>  (392) 
None

>  <published_value>  (392) 
16

>  <document_year>  (392) 
2008

>  <target_pref_name>  (392) 
Tyrosine-protein kinase ABL

>  <assay_chembl_id>  (392) 
CHEMBL1243972

>  <standard_relation>  (392) 
=

>  <assay_description>  (392) 
Inhibition of recombinant c-Abl by radioactive phosphotransfer assay in presence of 10 uM ATP

>  <published_relation>  (392) 
=

>  <standard_value>  (392) 
16000

>  <qudt_units>  (392) 
http://www.openphacts.org/units/Nanomolar

>  <target_tax_id>  (392) 
9606

>  <bao_label>  (392) 
single protein format

>  <published_units>  (392) 
uM

>  <pchembl_value>  (392) 
4.8

>  <published_type>  (392) 
IC50

>  <activity_comment>  (392) 
None

$$$$

     RDKit          

 20 22  0  0  0  0  0  0  0  0999 V2000
    0.0000    0.0000    0.0000 C   0  0  0  0  0  0  0  0  0  0  0  0
    0.0000    0.0000    0.0000 C   0  0  0  0  0  0  0  0  0  0  0  0
    0.0000    0.0000    0.0000 C   0  0  0  0  0  0  0  0  0  0  0  0
    0.0000    0.0000    0.0000 N   0  0  0  0  0  0  0  0  0  0  0  0
    0.0000    0.0000    0.0000 N   0  0  0  0  0  0  0  0  0  0  0  0
    0.0000    0.0000    0.0000 C   0  0  0  0  0  0  0  0  0  0  0  0
    0.0000    0.0000    0.0000 C   0  0  0  0  0  0  0  0  0  0  0  0
    0.0000    0.0000    0.0000 O   0  0  0  0  0  0  0  0  0  0  0  0
    0.0000    0.0000    0.0000 C   0  0  0  0  0  0  0  0  0  0  0  0
    0.0000    0.0000    0.0000 C   0  0  0  0  0  0  0  0  0  0  0  0
    0.0000    0.0000    0.0000 C   0  0  0  0  0  0  0  0  0  0  0  0
    0.0000    0.0000    0.0000 O   0  0  0  0  0  0  0  0  0  0  0  0
    0.0000    0.0000    0.0000 C   0  0  0  0  0  0  0  0  0  0  0  0
    0.0000    0.0000    0.0000 C   0  0  0  0  0  0  0  0  0  0  0  0
    0.0000    0.0000    0.0000 C   0  0  0  0  0  0  0  0  0  0  0  0
    0.0000    0.0000    0.0000 N   0  0  0  0  0  0  0  0  0  0  0  0
    0.0000    0.0000    0.0000 N   0  0  0  0  0  0  0  0  0  0  0  0
    0.0000    0.0000    0.0000 C   0  0  0  0  0  0  0  0  0  0  0  0
    0.0000    0.0000    0.0000 N   0  0  0  0  0  0  0  0  0  0  0  0
    0.0000    0.0000    0.0000 C   0  0  0  0  0  0  0  0  0  0  0  0
  1  2  1  0
  2  3  1  0
  2  4  1  0
  4  5  1  0
  5  6  2  0
  6  7  1  0
  7  8  1  0
  8  9  1  0
  9 10  2  0
 10 11  1  0
 11 12  2  0
 10 13  1  0
  6 14  1  0
 14 15  2  0
 15 16  1  0
 15 17  1  0
 17 18  2  0
 18 19  1  0
 19 20  2  0
 20  4  1  0
 13  7  2  0
 20 14  1  0
M  END
>  <pIC50>  (393) 
5.35

>  <ChEMBL_ID>  (393) 
CHEMBL1241439

>  <document_journal>  (393) 
Nat. Chem. Biol.

>  <bao_endpoint>  (393) 
BAO_0000190

>  <potential_duplicate>  (393) 
False

>  <uo_units>  (393) 
UO_0000065

>  <canonical_smiles>  (393) 
CC(C)n1nc(c2occ(C=O)c2)c3c(N)ncnc13

>  <parent_molecule_chembl_id>  (393) 
CHEMBL1241439

>  <assay_type>  (393) 
B

>  <src_id>  (393) 
1

>  <ligand_efficiency>  (393) 
{u'le': u'0.37', u'bei': u'19.71', u'sei': u'5.36', u'lle': u'3.63'}

>  <standard_flag>  (393) 
True

>  <molecule_chembl_id>  (393) 
CHEMBL1241439

>  <target_organism>  (393) 
Homo sapiens

>  <standard_units>  (393) 
nM

>  <record_id>  (393) 
952174

>  <document_chembl_id>  (393) 
CHEMBL1240340

>  <bao_format>  (393) 
BAO_0000357

>  <data_validity_description>  (393) 
None

>  <activity_id>  (393) 
3442711

>  <standard_type>  (393) 
IC50

>  <target_chembl_id>  (393) 
CHEMBL1862

>  <data_validity_comment>  (393) 
None

>  <published_value>  (393) 
4.5

>  <document_year>  (393) 
2008

>  <target_pref_name>  (393) 
Tyrosine-protein kinase ABL

>  <assay_chembl_id>  (393) 
CHEMBL1243972

>  <standard_relation>  (393) 
=

>  <assay_description>  (393) 
Inhibition of recombinant c-Abl by radioactive phosphotransfer assay in presence of 10 uM ATP

>  <published_relation>  (393) 
=

>  <standard_value>  (393) 
4500

>  <qudt_units>  (393) 
http://www.openphacts.org/units/Nanomolar

>  <target_tax_id>  (393) 
9606

>  <bao_label>  (393) 
single protein format

>  <published_units>  (393) 
uM

>  <pchembl_value>  (393) 
5.35

>  <published_type>  (393) 
IC50

>  <activity_comment>  (393) 
None

$$$$

     RDKit          

 21 23  0  0  0  0  0  0  0  0999 V2000
    0.0000    0.0000    0.0000 C   0  0  0  0  0  0  0  0  0  0  0  0
    0.0000    0.0000    0.0000 C   0  0  0  0  0  0  0  0  0  0  0  0
    0.0000    0.0000    0.0000 C   0  0  0  0  0  0  0  0  0  0  0  0
    0.0000    0.0000    0.0000 N   0  0  0  0  0  0  0  0  0  0  0  0
    0.0000    0.0000    0.0000 N   0  0  0  0  0  0  0  0  0  0  0  0
    0.0000    0.0000    0.0000 C   0  0  0  0  0  0  0  0  0  0  0  0
    0.0000    0.0000    0.0000 C   0  0  0  0  0  0  0  0  0  0  0  0
    0.0000    0.0000    0.0000 C   0  0  0  0  0  0  0  0  0  0  0  0
    0.0000    0.0000    0.0000 C   0  0  0  0  0  0  0  0  0  0  0  0
    0.0000    0.0000    0.0000 C   0  0  0  0  0  0  0  0  0  0  0  0
    0.0000    0.0000    0.0000 C   0  0  0  0  0  0  0  0  0  0  0  0
    0.0000    0.0000    0.0000 C   0  0  0  0  0  0  0  0  0  0  0  0
    0.0000    0.0000    0.0000 O   0  0  0  0  0  0  0  0  0  0  0  0
    0.0000    0.0000    0.0000 S   0  0  0  0  0  0  0  0  0  0  0  0
    0.0000    0.0000    0.0000 C   0  0  0  0  0  0  0  0  0  0  0  0
    0.0000    0.0000    0.0000 C   0  0  0  0  0  0  0  0  0  0  0  0
    0.0000    0.0000    0.0000 N   0  0  0  0  0  0  0  0  0  0  0  0
    0.0000    0.0000    0.0000 N   0  0  0  0  0  0  0  0  0  0  0  0
    0.0000    0.0000    0.0000 C   0  0  0  0  0  0  0  0  0  0  0  0
    0.0000    0.0000    0.0000 N   0  0  0  0  0  0  0  0  0  0  0  0
    0.0000    0.0000    0.0000 C   0  0  0  0  0  0  0  0  0  0  0  0
  1  2  1  0
  2  3  1  0
  2  4  1  0
  4  5  1  0
  5  6  2  0
  6  7  1  0
  7  8  2  0
  8  9  1  0
  9 10  1  0
  9 11  2  0
 11 12  1  0
 12 13  2  0
 11 14  1  0
  6 15  1  0
 15 16  2  0
 16 17  1  0
 16 18  1  0
 18 19  2  0
 19 20  1  0
 20 21  2  0
 21  4  1  0
 14  7  1  0
 21 15  1  0
M  END
>  <pIC50>  (394) 
5.59

>  <ChEMBL_ID>  (394) 
CHEMBL1241947

>  <document_journal>  (394) 
Nat. Chem. Biol.

>  <bao_endpoint>  (394) 
BAO_0000190

>  <potential_duplicate>  (394) 
False

>  <uo_units>  (394) 
UO_0000065

>  <canonical_smiles>  (394) 
CC(C)n1nc(c2cc(C)c(C=O)s2)c3c(N)ncnc13

>  <parent_molecule_chembl_id>  (394) 
CHEMBL1241947

>  <assay_type>  (394) 
B

>  <src_id>  (394) 
1

>  <ligand_efficiency>  (394) 
{u'le': u'0.36', u'bei': u'18.53', u'sei': u'4.86', u'lle': u'2.53'}

>  <standard_flag>  (394) 
True

>  <molecule_chembl_id>  (394) 
CHEMBL1241947

>  <target_organism>  (394) 
Homo sapiens

>  <standard_units>  (394) 
nM

>  <record_id>  (394) 
952926

>  <document_chembl_id>  (394) 
CHEMBL1240340

>  <bao_format>  (394) 
BAO_0000357

>  <data_validity_description>  (394) 
None

>  <activity_id>  (394) 
3442725

>  <standard_type>  (394) 
IC50

>  <target_chembl_id>  (394) 
CHEMBL1862

>  <data_validity_comment>  (394) 
None

>  <published_value>  (394) 
2.6

>  <document_year>  (394) 
2008

>  <target_pref_name>  (394) 
Tyrosine-protein kinase ABL

>  <assay_chembl_id>  (394) 
CHEMBL1243972

>  <standard_relation>  (394) 
=

>  <assay_description>  (394) 
Inhibition of recombinant c-Abl by radioactive phosphotransfer assay in presence of 10 uM ATP

>  <published_relation>  (394) 
=

>  <standard_value>  (394) 
2600

>  <qudt_units>  (394) 
http://www.openphacts.org/units/Nanomolar

>  <target_tax_id>  (394) 
9606

>  <bao_label>  (394) 
single protein format

>  <published_units>  (394) 
uM

>  <pchembl_value>  (394) 
5.59

>  <published_type>  (394) 
IC50

>  <activity_comment>  (394) 
None

$$$$

     RDKit          

 24 26  0  0  0  0  0  0  0  0999 V2000
    0.0000    0.0000    0.0000 C   0  0  0  0  0  0  0  0  0  0  0  0
    0.0000    0.0000    0.0000 C   0  0  0  0  0  0  0  0  0  0  0  0
    0.0000    0.0000    0.0000 C   0  0  0  0  0  0  0  0  0  0  0  0
    0.0000    0.0000    0.0000 N   0  0  0  0  0  0  0  0  0  0  0  0
    0.0000    0.0000    0.0000 N   0  0  0  0  0  0  0  0  0  0  0  0
    0.0000    0.0000    0.0000 C   0  0  0  0  0  0  0  0  0  0  0  0
    0.0000    0.0000    0.0000 C   0  0  0  0  0  0  0  0  0  0  0  0
    0.0000    0.0000    0.0000 C   0  0  0  0  0  0  0  0  0  0  0  0
    0.0000    0.0000    0.0000 C   0  0  0  0  0  0  0  0  0  0  0  0
    0.0000    0.0000    0.0000 C   0  0  0  0  0  0  0  0  0  0  0  0
    0.0000    0.0000    0.0000 C   0  0  0  0  0  0  0  0  0  0  0  0
    0.0000    0.0000    0.0000 N   0  0  0  0  0  0  0  0  0  0  0  0
    0.0000    0.0000    0.0000 S   0  0  0  0  0  0  0  0  0  0  0  0
    0.0000    0.0000    0.0000 O   0  0  0  0  0  0  0  0  0  0  0  0
    0.0000    0.0000    0.0000 O   0  0  0  0  0  0  0  0  0  0  0  0
    0.0000    0.0000    0.0000 C   0  0  0  0  0  0  0  0  0  0  0  0
    0.0000    0.0000    0.0000 C   0  0  0  0  0  0  0  0  0  0  0  0
    0.0000    0.0000    0.0000 C   0  0  0  0  0  0  0  0  0  0  0  0
    0.0000    0.0000    0.0000 C   0  0  0  0  0  0  0  0  0  0  0  0
    0.0000    0.0000    0.0000 N   0  0  0  0  0  0  0  0  0  0  0  0
    0.0000    0.0000    0.0000 N   0  0  0  0  0  0  0  0  0  0  0  0
    0.0000    0.0000    0.0000 C   0  0  0  0  0  0  0  0  0  0  0  0
    0.0000    0.0000    0.0000 N   0  0  0  0  0  0  0  0  0  0  0  0
    0.0000    0.0000    0.0000 C   0  0  0  0  0  0  0  0  0  0  0  0
  1  2  1  0
  2  3  1  0
  2  4  1  0
  4  5  1  0
  5  6  2  0
  6  7  1  0
  7  8  2  0
  8  9  1  0
  9 10  2  0
 10 11  1  0
 11 12  1  0
 12 13  1  0
 13 14  2  0
 13 15  2  0
 13 16  1  0
 11 17  2  0
  6 18  1  0
 18 19  2  0
 19 20  1  0
 19 21  1  0
 21 22  2  0
 22 23  1  0
 23 24  2  0
 24  4  1  0
 17  7  1  0
 24 18  1  0
M  END
>  <pIC50>  (395) 
4.89

>  <ChEMBL_ID>  (395) 
CHEMBL1241948

>  <document_journal>  (395) 
Nat. Chem. Biol.

>  <bao_endpoint>  (395) 
BAO_0000190

>  <potential_duplicate>  (395) 
False

>  <uo_units>  (395) 
UO_0000065

>  <canonical_smiles>  (395) 
CC(C)n1nc(c2cccc(NS(=O)(=O)C)c2)c3c(N)ncnc13

>  <parent_molecule_chembl_id>  (395) 
CHEMBL1241948

>  <assay_type>  (395) 
B

>  <src_id>  (395) 
1

>  <ligand_efficiency>  (395) 
{u'le': u'0.28', u'bei': u'14.1', u'sei': u'3.94', u'lle': u'3.41'}

>  <standard_flag>  (395) 
True

>  <molecule_chembl_id>  (395) 
CHEMBL1241948

>  <target_organism>  (395) 
Homo sapiens

>  <standard_units>  (395) 
nM

>  <record_id>  (395) 
952927

>  <document_chembl_id>  (395) 
CHEMBL1240340

>  <bao_format>  (395) 
BAO_0000357

>  <data_validity_description>  (395) 
None

>  <activity_id>  (395) 
3442738

>  <standard_type>  (395) 
IC50

>  <target_chembl_id>  (395) 
CHEMBL1862

>  <data_validity_comment>  (395) 
None

>  <published_value>  (395) 
13

>  <document_year>  (395) 
2008

>  <target_pref_name>  (395) 
Tyrosine-protein kinase ABL

>  <assay_chembl_id>  (395) 
CHEMBL1243972

>  <standard_relation>  (395) 
=

>  <assay_description>  (395) 
Inhibition of recombinant c-Abl by radioactive phosphotransfer assay in presence of 10 uM ATP

>  <published_relation>  (395) 
=

>  <standard_value>  (395) 
13000

>  <qudt_units>  (395) 
http://www.openphacts.org/units/Nanomolar

>  <target_tax_id>  (395) 
9606

>  <bao_label>  (395) 
single protein format

>  <published_units>  (395) 
uM

>  <pchembl_value>  (395) 
4.89

>  <published_type>  (395) 
IC50

>  <activity_comment>  (395) 
None

$$$$

     RDKit          

 24 26  0  0  0  0  0  0  0  0999 V2000
    0.0000    0.0000    0.0000 C   0  0  0  0  0  0  0  0  0  0  0  0
    0.0000    0.0000    0.0000 C   0  0  0  0  0  0  0  0  0  0  0  0
    0.0000    0.0000    0.0000 C   0  0  0  0  0  0  0  0  0  0  0  0
    0.0000    0.0000    0.0000 N   0  0  0  0  0  0  0  0  0  0  0  0
    0.0000    0.0000    0.0000 N   0  0  0  0  0  0  0  0  0  0  0  0
    0.0000    0.0000    0.0000 C   0  0  0  0  0  0  0  0  0  0  0  0
    0.0000    0.0000    0.0000 C   0  0  0  0  0  0  0  0  0  0  0  0
    0.0000    0.0000    0.0000 C   0  0  0  0  0  0  0  0  0  0  0  0
    0.0000    0.0000    0.0000 C   0  0  0  0  0  0  0  0  0  0  0  0
    0.0000    0.0000    0.0000 C   0  0  0  0  0  0  0  0  0  0  0  0
    0.0000    0.0000    0.0000 N   0  0  0  0  0  0  0  0  0  0  0  0
    0.0000    0.0000    0.0000 S   0  0  0  0  0  0  0  0  0  0  0  0
    0.0000    0.0000    0.0000 O   0  0  0  0  0  0  0  0  0  0  0  0
    0.0000    0.0000    0.0000 O   0  0  0  0  0  0  0  0  0  0  0  0
    0.0000    0.0000    0.0000 C   0  0  0  0  0  0  0  0  0  0  0  0
    0.0000    0.0000    0.0000 C   0  0  0  0  0  0  0  0  0  0  0  0
    0.0000    0.0000    0.0000 C   0  0  0  0  0  0  0  0  0  0  0  0
    0.0000    0.0000    0.0000 C   0  0  0  0  0  0  0  0  0  0  0  0
    0.0000    0.0000    0.0000 C   0  0  0  0  0  0  0  0  0  0  0  0
    0.0000    0.0000    0.0000 N   0  0  0  0  0  0  0  0  0  0  0  0
    0.0000    0.0000    0.0000 N   0  0  0  0  0  0  0  0  0  0  0  0
    0.0000    0.0000    0.0000 C   0  0  0  0  0  0  0  0  0  0  0  0
    0.0000    0.0000    0.0000 N   0  0  0  0  0  0  0  0  0  0  0  0
    0.0000    0.0000    0.0000 C   0  0  0  0  0  0  0  0  0  0  0  0
  1  2  1  0
  2  3  1  0
  2  4  1  0
  4  5  1  0
  5  6  2  0
  6  7  1  0
  7  8  2  0
  8  9  1  0
  9 10  2  0
 10 11  1  0
 11 12  1  0
 12 13  2  0
 12 14  2  0
 12 15  1  0
 10 16  1  0
 16 17  2  0
  6 18  1  0
 18 19  2  0
 19 20  1  0
 19 21  1  0
 21 22  2  0
 22 23  1  0
 23 24  2  0
 24  4  1  0
 17  7  1  0
 24 18  1  0
M  END
>  <pIC50>  (396) 
4.96

>  <ChEMBL_ID>  (396) 
CHEMBL1242030

>  <document_journal>  (396) 
Nat. Chem. Biol.

>  <bao_endpoint>  (396) 
BAO_0000190

>  <potential_duplicate>  (396) 
False

>  <uo_units>  (396) 
UO_0000065

>  <canonical_smiles>  (396) 
CC(C)n1nc(c2ccc(NS(=O)(=O)C)cc2)c3c(N)ncnc13

>  <parent_molecule_chembl_id>  (396) 
CHEMBL1242030

>  <assay_type>  (396) 
B

>  <src_id>  (396) 
1

>  <ligand_efficiency>  (396) 
{u'le': u'0.28', u'bei': u'14.31', u'sei': u'3.99', u'lle': u'3.48'}

>  <standard_flag>  (396) 
True

>  <molecule_chembl_id>  (396) 
CHEMBL1242030

>  <target_organism>  (396) 
Homo sapiens

>  <standard_units>  (396) 
nM

>  <record_id>  (396) 
953057

>  <document_chembl_id>  (396) 
CHEMBL1240340

>  <bao_format>  (396) 
BAO_0000357

>  <data_validity_description>  (396) 
None

>  <activity_id>  (396) 
3442751

>  <standard_type>  (396) 
IC50

>  <target_chembl_id>  (396) 
CHEMBL1862

>  <data_validity_comment>  (396) 
None

>  <published_value>  (396) 
11

>  <document_year>  (396) 
2008

>  <target_pref_name>  (396) 
Tyrosine-protein kinase ABL

>  <assay_chembl_id>  (396) 
CHEMBL1243972

>  <standard_relation>  (396) 
=

>  <assay_description>  (396) 
Inhibition of recombinant c-Abl by radioactive phosphotransfer assay in presence of 10 uM ATP

>  <published_relation>  (396) 
=

>  <standard_value>  (396) 
11000

>  <qudt_units>  (396) 
http://www.openphacts.org/units/Nanomolar

>  <target_tax_id>  (396) 
9606

>  <bao_label>  (396) 
single protein format

>  <published_units>  (396) 
uM

>  <pchembl_value>  (396) 
4.96

>  <published_type>  (396) 
IC50

>  <activity_comment>  (396) 
None

$$$$

     RDKit          

 23 25  0  0  0  0  0  0  0  0999 V2000
    0.0000    0.0000    0.0000 C   0  0  0  0  0  0  0  0  0  0  0  0
    0.0000    0.0000    0.0000 C   0  0  0  0  0  0  0  0  0  0  0  0
    0.0000    0.0000    0.0000 C   0  0  0  0  0  0  0  0  0  0  0  0
    0.0000    0.0000    0.0000 N   0  0  0  0  0  0  0  0  0  0  0  0
    0.0000    0.0000    0.0000 N   0  0  0  0  0  0  0  0  0  0  0  0
    0.0000    0.0000    0.0000 C   0  0  0  0  0  0  0  0  0  0  0  0
    0.0000    0.0000    0.0000 C   0  0  0  0  0  0  0  0  0  0  0  0
    0.0000    0.0000    0.0000 C   0  0  0  0  0  0  0  0  0  0  0  0
    0.0000    0.0000    0.0000 C   0  0  0  0  0  0  0  0  0  0  0  0
    0.0000    0.0000    0.0000 C   0  0  0  0  0  0  0  0  0  0  0  0
    0.0000    0.0000    0.0000 C   0  0  0  0  0  0  0  0  0  0  0  0
    0.0000    0.0000    0.0000 C   0  0  0  0  0  0  0  0  0  0  0  0
    0.0000    0.0000    0.0000 S   0  0  0  0  0  0  0  0  0  0  0  0
    0.0000    0.0000    0.0000 O   0  0  0  0  0  0  0  0  0  0  0  0
    0.0000    0.0000    0.0000 O   0  0  0  0  0  0  0  0  0  0  0  0
    0.0000    0.0000    0.0000 N   0  0  0  0  0  0  0  0  0  0  0  0
    0.0000    0.0000    0.0000 C   0  0  0  0  0  0  0  0  0  0  0  0
    0.0000    0.0000    0.0000 C   0  0  0  0  0  0  0  0  0  0  0  0
    0.0000    0.0000    0.0000 N   0  0  0  0  0  0  0  0  0  0  0  0
    0.0000    0.0000    0.0000 N   0  0  0  0  0  0  0  0  0  0  0  0
    0.0000    0.0000    0.0000 C   0  0  0  0  0  0  0  0  0  0  0  0
    0.0000    0.0000    0.0000 N   0  0  0  0  0  0  0  0  0  0  0  0
    0.0000    0.0000    0.0000 C   0  0  0  0  0  0  0  0  0  0  0  0
  1  2  1  0
  2  3  1  0
  2  4  1  0
  4  5  1  0
  5  6  2  0
  6  7  1  0
  7  8  2  0
  8  9  1  0
  9 10  2  0
 10 11  1  0
 11 12  2  0
 11 13  1  0
 13 14  2  0
 13 15  2  0
 13 16  1  0
  6 17  1  0
 17 18  2  0
 18 19  1  0
 18 20  1  0
 20 21  2  0
 21 22  1  0
 22 23  2  0
 23  4  1  0
 12  7  1  0
 23 17  1  0
M  END
>  <pIC50>  (397) 
4.96

>  <ChEMBL_ID>  (397) 
CHEMBL1242031

>  <document_journal>  (397) 
Nat. Chem. Biol.

>  <bao_endpoint>  (397) 
BAO_0000190

>  <potential_duplicate>  (397) 
False

>  <uo_units>  (397) 
UO_0000065

>  <canonical_smiles>  (397) 
CC(C)n1nc(c2cccc(c2)S(=O)(=O)N)c3c(N)ncnc13

>  <parent_molecule_chembl_id>  (397) 
CHEMBL1242031

>  <assay_type>  (397) 
B

>  <src_id>  (397) 
1

>  <ligand_efficiency>  (397) 
{u'le': u'0.29', u'bei': u'14.92', u'sei': u'3.59', u'lle': u'3.69'}

>  <standard_flag>  (397) 
True

>  <molecule_chembl_id>  (397) 
CHEMBL1242031

>  <target_organism>  (397) 
Homo sapiens

>  <standard_units>  (397) 
nM

>  <record_id>  (397) 
953058

>  <document_chembl_id>  (397) 
CHEMBL1240340

>  <bao_format>  (397) 
BAO_0000357

>  <data_validity_description>  (397) 
None

>  <activity_id>  (397) 
3442765

>  <standard_type>  (397) 
IC50

>  <target_chembl_id>  (397) 
CHEMBL1862

>  <data_validity_comment>  (397) 
None

>  <published_value>  (397) 
11

>  <document_year>  (397) 
2008

>  <target_pref_name>  (397) 
Tyrosine-protein kinase ABL

>  <assay_chembl_id>  (397) 
CHEMBL1243972

>  <standard_relation>  (397) 
=

>  <assay_description>  (397) 
Inhibition of recombinant c-Abl by radioactive phosphotransfer assay in presence of 10 uM ATP

>  <published_relation>  (397) 
=

>  <standard_value>  (397) 
11000

>  <qudt_units>  (397) 
http://www.openphacts.org/units/Nanomolar

>  <target_tax_id>  (397) 
9606

>  <bao_label>  (397) 
single protein format

>  <published_units>  (397) 
uM

>  <pchembl_value>  (397) 
4.96

>  <published_type>  (397) 
IC50

>  <activity_comment>  (397) 
None

$$$$

     RDKit          

 23 25  0  0  0  0  0  0  0  0999 V2000
    0.0000    0.0000    0.0000 C   0  0  0  0  0  0  0  0  0  0  0  0
    0.0000    0.0000    0.0000 C   0  0  0  0  0  0  0  0  0  0  0  0
    0.0000    0.0000    0.0000 C   0  0  0  0  0  0  0  0  0  0  0  0
    0.0000    0.0000    0.0000 N   0  0  0  0  0  0  0  0  0  0  0  0
    0.0000    0.0000    0.0000 N   0  0  0  0  0  0  0  0  0  0  0  0
    0.0000    0.0000    0.0000 C   0  0  0  0  0  0  0  0  0  0  0  0
    0.0000    0.0000    0.0000 C   0  0  0  0  0  0  0  0  0  0  0  0
    0.0000    0.0000    0.0000 C   0  0  0  0  0  0  0  0  0  0  0  0
    0.0000    0.0000    0.0000 C   0  0  0  0  0  0  0  0  0  0  0  0
    0.0000    0.0000    0.0000 C   0  0  0  0  0  0  0  0  0  0  0  0
    0.0000    0.0000    0.0000 C   0  0  0  0  0  0  0  0  0  0  0  0
    0.0000    0.0000    0.0000 C   0  0  0  0  0  0  0  0  0  0  0  0
    0.0000    0.0000    0.0000 S   0  0  0  0  0  0  0  0  0  0  0  0
    0.0000    0.0000    0.0000 O   0  0  0  0  0  0  0  0  0  0  0  0
    0.0000    0.0000    0.0000 O   0  0  0  0  0  0  0  0  0  0  0  0
    0.0000    0.0000    0.0000 N   0  0  0  0  0  0  0  0  0  0  0  0
    0.0000    0.0000    0.0000 C   0  0  0  0  0  0  0  0  0  0  0  0
    0.0000    0.0000    0.0000 C   0  0  0  0  0  0  0  0  0  0  0  0
    0.0000    0.0000    0.0000 N   0  0  0  0  0  0  0  0  0  0  0  0
    0.0000    0.0000    0.0000 N   0  0  0  0  0  0  0  0  0  0  0  0
    0.0000    0.0000    0.0000 C   0  0  0  0  0  0  0  0  0  0  0  0
    0.0000    0.0000    0.0000 N   0  0  0  0  0  0  0  0  0  0  0  0
    0.0000    0.0000    0.0000 C   0  0  0  0  0  0  0  0  0  0  0  0
  1  2  1  0
  2  3  1  0
  2  4  1  0
  4  5  1  0
  5  6  2  0
  6  7  1  0
  7  8  2  0
  8  9  1  0
  9 10  2  0
 10 11  1  0
 11 12  2  0
 10 13  1  0
 13 14  2  0
 13 15  2  0
 13 16  1  0
  6 17  1  0
 17 18  2  0
 18 19  1  0
 18 20  1  0
 20 21  2  0
 21 22  1  0
 22 23  2  0
 23  4  1  0
 12  7  1  0
 23 17  1  0
M  END
>  <pIC50>  (398) 
4.24

>  <ChEMBL_ID>  (398) 
CHEMBL1242032

>  <document_journal>  (398) 
Nat. Chem. Biol.

>  <bao_endpoint>  (398) 
BAO_0000190

>  <potential_duplicate>  (398) 
False

>  <uo_units>  (398) 
UO_0000065

>  <canonical_smiles>  (398) 
CC(C)n1nc(c2ccc(cc2)S(=O)(=O)N)c3c(N)ncnc13

>  <parent_molecule_chembl_id>  (398) 
CHEMBL1242032

>  <assay_type>  (398) 
B

>  <src_id>  (398) 
1

>  <ligand_efficiency>  (398) 
{u'le': u'0.25', u'bei': u'12.75', u'sei': u'3.07', u'lle': u'2.97'}

>  <standard_flag>  (398) 
True

>  <molecule_chembl_id>  (398) 
CHEMBL1242032

>  <target_organism>  (398) 
Homo sapiens

>  <standard_units>  (398) 
nM

>  <record_id>  (398) 
953059

>  <document_chembl_id>  (398) 
CHEMBL1240340

>  <bao_format>  (398) 
BAO_0000357

>  <data_validity_description>  (398) 
None

>  <activity_id>  (398) 
3442779

>  <standard_type>  (398) 
IC50

>  <target_chembl_id>  (398) 
CHEMBL1862

>  <data_validity_comment>  (398) 
None

>  <published_value>  (398) 
58

>  <document_year>  (398) 
2008

>  <target_pref_name>  (398) 
Tyrosine-protein kinase ABL

>  <assay_chembl_id>  (398) 
CHEMBL1243972

>  <standard_relation>  (398) 
=

>  <assay_description>  (398) 
Inhibition of recombinant c-Abl by radioactive phosphotransfer assay in presence of 10 uM ATP

>  <published_relation>  (398) 
=

>  <standard_value>  (398) 
58000

>  <qudt_units>  (398) 
http://www.openphacts.org/units/Nanomolar

>  <target_tax_id>  (398) 
9606

>  <bao_label>  (398) 
single protein format

>  <published_units>  (398) 
uM

>  <pchembl_value>  (398) 
4.24

>  <published_type>  (398) 
IC50

>  <activity_comment>  (398) 
None

$$$$

     RDKit          

 27 30  0  0  0  0  0  0  0  0999 V2000
    0.0000    0.0000    0.0000 C   0  0  0  0  0  0  0  0  0  0  0  0
    0.0000    0.0000    0.0000 C   0  0  0  0  0  0  0  0  0  0  0  0
    0.0000    0.0000    0.0000 C   0  0  0  0  0  0  0  0  0  0  0  0
    0.0000    0.0000    0.0000 N   0  0  0  0  0  0  0  0  0  0  0  0
    0.0000    0.0000    0.0000 N   0  0  0  0  0  0  0  0  0  0  0  0
    0.0000    0.0000    0.0000 C   0  0  0  0  0  0  0  0  0  0  0  0
    0.0000    0.0000    0.0000 C   0  0  0  0  0  0  0  0  0  0  0  0
    0.0000    0.0000    0.0000 C   0  0  0  0  0  0  0  0  0  0  0  0
    0.0000    0.0000    0.0000 C   0  0  0  0  0  0  0  0  0  0  0  0
    0.0000    0.0000    0.0000 C   0  0  0  0  0  0  0  0  0  0  0  0
    0.0000    0.0000    0.0000 C   0  0  0  0  0  0  0  0  0  0  0  0
    0.0000    0.0000    0.0000 C   0  0  0  0  0  0  0  0  0  0  0  0
    0.0000    0.0000    0.0000 C   0  0  0  0  0  0  0  0  0  0  0  0
    0.0000    0.0000    0.0000 O   0  0  0  0  0  0  0  0  0  0  0  0
    0.0000    0.0000    0.0000 N   0  0  0  0  0  0  0  0  0  0  0  0
    0.0000    0.0000    0.0000 C   0  0  0  0  0  0  0  0  0  0  0  0
    0.0000    0.0000    0.0000 N   0  0  0  0  0  0  0  0  0  0  0  0
    0.0000    0.0000    0.0000 C   0  0  0  0  0  0  0  0  0  0  0  0
    0.0000    0.0000    0.0000 C   0  0  0  0  0  0  0  0  0  0  0  0
    0.0000    0.0000    0.0000 S   0  0  0  0  0  0  0  0  0  0  0  0
    0.0000    0.0000    0.0000 C   0  0  0  0  0  0  0  0  0  0  0  0
    0.0000    0.0000    0.0000 C   0  0  0  0  0  0  0  0  0  0  0  0
    0.0000    0.0000    0.0000 N   0  0  0  0  0  0  0  0  0  0  0  0
    0.0000    0.0000    0.0000 N   0  0  0  0  0  0  0  0  0  0  0  0
    0.0000    0.0000    0.0000 C   0  0  0  0  0  0  0  0  0  0  0  0
    0.0000    0.0000    0.0000 N   0  0  0  0  0  0  0  0  0  0  0  0
    0.0000    0.0000    0.0000 C   0  0  0  0  0  0  0  0  0  0  0  0
  1  2  1  0
  2  3  1  0
  2  4  1  0
  4  5  1  0
  5  6  2  0
  6  7  1  0
  7  8  2  0
  8  9  1  0
  9 10  2  0
 10 11  1  0
 11 12  2  0
 11 13  1  0
 13 14  2  0
 13 15  1  0
 15 16  1  0
 16 17  2  0
 17 18  1  0
 18 19  1  0
 19 20  1  0
  6 21  1  0
 21 22  2  0
 22 23  1  0
 22 24  1  0
 24 25  2  0
 25 26  1  0
 26 27  2  0
 27  4  1  0
 12  7  1  0
 20 16  1  0
 27 21  1  0
M  END
>  <pIC50>  (399) 
5.5

>  <ChEMBL_ID>  (399) 
CHEMBL1242115

>  <document_journal>  (399) 
Nat. Chem. Biol.

>  <bao_endpoint>  (399) 
BAO_0000190

>  <potential_duplicate>  (399) 
False

>  <uo_units>  (399) 
UO_0000065

>  <canonical_smiles>  (399) 
CC(C)n1nc(c2cccc(c2)C(=O)NC3=NCCS3)c4c(N)ncnc14

>  <parent_molecule_chembl_id>  (399) 
CHEMBL1242115

>  <assay_type>  (399) 
B

>  <src_id>  (399) 
1

>  <ligand_efficiency>  (399) 
{u'le': u'0.28', u'bei': u'14.41', u'sei': u'4.03', u'lle': u'2.65'}

>  <standard_flag>  (399) 
True

>  <molecule_chembl_id>  (399) 
CHEMBL1242115

>  <target_organism>  (399) 
Homo sapiens

>  <standard_units>  (399) 
nM

>  <record_id>  (399) 
953186

>  <document_chembl_id>  (399) 
CHEMBL1240340

>  <bao_format>  (399) 
BAO_0000357

>  <data_validity_description>  (399) 
None

>  <activity_id>  (399) 
3442793

>  <standard_type>  (399) 
IC50

>  <target_chembl_id>  (399) 
CHEMBL1862

>  <data_validity_comment>  (399) 
None

>  <published_value>  (399) 
3.2

>  <document_year>  (399) 
2008

>  <target_pref_name>  (399) 
Tyrosine-protein kinase ABL

>  <assay_chembl_id>  (399) 
CHEMBL1243972

>  <standard_relation>  (399) 
=

>  <assay_description>  (399) 
Inhibition of recombinant c-Abl by radioactive phosphotransfer assay in presence of 10 uM ATP

>  <published_relation>  (399) 
=

>  <standard_value>  (399) 
3200

>  <qudt_units>  (399) 
http://www.openphacts.org/units/Nanomolar

>  <target_tax_id>  (399) 
9606

>  <bao_label>  (399) 
single protein format

>  <published_units>  (399) 
uM

>  <pchembl_value>  (399) 
5.5

>  <published_type>  (399) 
IC50

>  <activity_comment>  (399) 
None

$$$$

     RDKit          

 23 26  0  0  0  0  0  0  0  0999 V2000
    0.0000    0.0000    0.0000 N   0  0  0  0  0  0  0  0  0  0  0  0
    0.0000    0.0000    0.0000 C   0  0  0  0  0  0  0  0  0  0  0  0
    0.0000    0.0000    0.0000 N   0  0  0  0  0  0  0  0  0  0  0  0
    0.0000    0.0000    0.0000 C   0  0  0  0  0  0  0  0  0  0  0  0
    0.0000    0.0000    0.0000 N   0  0  0  0  0  0  0  0  0  0  0  0
    0.0000    0.0000    0.0000 C   0  0  0  0  0  0  0  0  0  0  0  0
    0.0000    0.0000    0.0000 C   0  0  0  0  0  0  0  0  0  0  0  0
    0.0000    0.0000    0.0000 C   0  0  0  0  0  0  0  0  0  0  0  0
    0.0000    0.0000    0.0000 N   0  0  0  0  0  0  0  0  0  0  0  0
    0.0000    0.0000    0.0000 N   0  0  0  0  0  0  0  0  0  0  0  0
    0.0000    0.0000    0.0000 C   0  0  0  0  0  0  0  0  0  0  0  0
    0.0000    0.0000    0.0000 C   0  0  0  0  0  0  0  0  0  0  0  0
    0.0000    0.0000    0.0000 C   0  0  0  0  0  0  0  0  0  0  0  0
    0.0000    0.0000    0.0000 C   0  0  0  0  0  0  0  0  0  0  0  0
    0.0000    0.0000    0.0000 C   0  0  0  0  0  0  0  0  0  0  0  0
    0.0000    0.0000    0.0000 C   0  0  0  0  0  0  0  0  0  0  0  0
    0.0000    0.0000    0.0000 C   0  0  0  0  0  0  0  0  0  0  0  0
    0.0000    0.0000    0.0000 C   0  0  0  0  0  0  0  0  0  0  0  0
    0.0000    0.0000    0.0000 C   0  0  0  0  0  0  0  0  0  0  0  0
    0.0000    0.0000    0.0000 Cl  0  0  0  0  0  0  0  0  0  0  0  0
    0.0000    0.0000    0.0000 C   0  0  0  0  0  0  0  0  0  0  0  0
    0.0000    0.0000    0.0000 O   0  0  0  0  0  0  0  0  0  0  0  0
    0.0000    0.0000    0.0000 C   0  0  0  0  0  0  0  0  0  0  0  0
  1  2  1  0
  2  3  2  0
  3  4  1  0
  4  5  2  0
  5  6  1  0
  6  7  2  0
  7  8  1  0
  8  9  2  0
  9 10  1  0
 10 11  1  0
 11 12  1  0
 12 13  1  0
 13 14  1  0
 14 15  1  0
  8 16  1  0
 16 17  2  0
 17 18  1  0
 18 19  2  0
 19 20  1  0
 19 21  1  0
 21 22  1  0
 21 23  2  0
  7  2  1  0
 10  6  1  0
 15 11  1  0
 23 16  1  0
M  END
>  <pIC50>  (400) 
8.92

>  <ChEMBL_ID>  (400) 
CHEMBL1241676

>  <document_journal>  (400) 
Nat. Chem. Biol.

>  <bao_endpoint>  (400) 
BAO_0000190

>  <potential_duplicate>  (400) 
False

>  <uo_units>  (400) 
UO_0000065

>  <canonical_smiles>  (400) 
Nc1ncnc2c1c(nn2C3CCCC3)c4ccc(Cl)c(O)c4

>  <parent_molecule_chembl_id>  (400) 
CHEMBL1241676

>  <assay_type>  (400) 
B

>  <src_id>  (400) 
1

>  <ligand_efficiency>  (400) 
{u'le': u'0.53', u'bei': u'27.05', u'sei': u'9.93', u'lle': u'5.26'}

>  <standard_flag>  (400) 
True

>  <molecule_chembl_id>  (400) 
CHEMBL1241676

>  <target_organism>  (400) 
Homo sapiens

>  <standard_units>  (400) 
nM

>  <record_id>  (400) 
952522

>  <document_chembl_id>  (400) 
CHEMBL1240340

>  <bao_format>  (400) 
BAO_0000357

>  <data_validity_description>  (400) 
None

>  <activity_id>  (400) 
3442958

>  <standard_type>  (400) 
IC50

>  <target_chembl_id>  (400) 
CHEMBL1862

>  <data_validity_comment>  (400) 
None

>  <published_value>  (400) 
0.0012

>  <document_year>  (400) 
2008

>  <target_pref_name>  (400) 
Tyrosine-protein kinase ABL

>  <assay_chembl_id>  (400) 
CHEMBL1243972

>  <standard_relation>  (400) 
=

>  <assay_description>  (400) 
Inhibition of recombinant c-Abl by radioactive phosphotransfer assay in presence of 10 uM ATP

>  <published_relation>  (400) 
=

>  <standard_value>  (400) 
1.2

>  <qudt_units>  (400) 
http://www.openphacts.org/units/Nanomolar

>  <target_tax_id>  (400) 
9606

>  <bao_label>  (400) 
single protein format

>  <published_units>  (400) 
uM

>  <pchembl_value>  (400) 
8.92

>  <published_type>  (400) 
IC50

>  <activity_comment>  (400) 
None

$$$$

     RDKit          

 23 26  0  0  0  0  0  0  0  0999 V2000
    0.0000    0.0000    0.0000 N   0  0  0  0  0  0  0  0  0  0  0  0
    0.0000    0.0000    0.0000 C   0  0  0  0  0  0  0  0  0  0  0  0
    0.0000    0.0000    0.0000 N   0  0  0  0  0  0  0  0  0  0  0  0
    0.0000    0.0000    0.0000 C   0  0  0  0  0  0  0  0  0  0  0  0
    0.0000    0.0000    0.0000 N   0  0  0  0  0  0  0  0  0  0  0  0
    0.0000    0.0000    0.0000 C   0  0  0  0  0  0  0  0  0  0  0  0
    0.0000    0.0000    0.0000 C   0  0  0  0  0  0  0  0  0  0  0  0
    0.0000    0.0000    0.0000 C   0  0  0  0  0  0  0  0  0  0  0  0
    0.0000    0.0000    0.0000 N   0  0  0  0  0  0  0  0  0  0  0  0
    0.0000    0.0000    0.0000 N   0  0  0  0  0  0  0  0  0  0  0  0
    0.0000    0.0000    0.0000 C   0  0  0  0  0  0  0  0  0  0  0  0
    0.0000    0.0000    0.0000 C   0  0  0  0  0  0  0  0  0  0  0  0
    0.0000    0.0000    0.0000 C   0  0  0  0  0  0  0  0  0  0  0  0
    0.0000    0.0000    0.0000 N   0  0  0  0  0  0  0  0  0  0  0  0
    0.0000    0.0000    0.0000 C   0  0  0  0  0  0  0  0  0  0  0  0
    0.0000    0.0000    0.0000 C   0  0  0  0  0  0  0  0  0  0  0  0
    0.0000    0.0000    0.0000 C   0  0  0  0  0  0  0  0  0  0  0  0
    0.0000    0.0000    0.0000 C   0  0  0  0  0  0  0  0  0  0  0  0
    0.0000    0.0000    0.0000 C   0  0  0  0  0  0  0  0  0  0  0  0
    0.0000    0.0000    0.0000 Cl  0  0  0  0  0  0  0  0  0  0  0  0
    0.0000    0.0000    0.0000 C   0  0  0  0  0  0  0  0  0  0  0  0
    0.0000    0.0000    0.0000 O   0  0  0  0  0  0  0  0  0  0  0  0
    0.0000    0.0000    0.0000 C   0  0  0  0  0  0  0  0  0  0  0  0
  1  2  1  0
  2  3  2  0
  3  4  1  0
  4  5  2  0
  5  6  1  0
  6  7  2  0
  7  8  1  0
  8  9  2  0
  9 10  1  0
 10 11  1  0
 11 12  1  0
 12 13  1  0
 13 14  1  0
 14 15  1  0
  8 16  1  0
 16 17  2  0
 17 18  1  0
 18 19  2  0
 19 20  1  0
 19 21  1  0
 21 22  1  0
 21 23  2  0
  7  2  1  0
 10  6  1  0
 15 11  1  0
 23 16  1  0
M  END
>  <pIC50>  (401) 
6.3

>  <ChEMBL_ID>  (401) 
CHEMBL1241677

>  <document_journal>  (401) 
Nat. Chem. Biol.

>  <bao_endpoint>  (401) 
BAO_0000190

>  <potential_duplicate>  (401) 
False

>  <uo_units>  (401) 
UO_0000065

>  <canonical_smiles>  (401) 
Nc1ncnc2c1c(nn2[C@@H]3CCNC3)c4ccc(Cl)c(O)c4

>  <parent_molecule_chembl_id>  (401) 
CHEMBL1241677

>  <assay_type>  (401) 
B

>  <src_id>  (401) 
1

>  <ligand_efficiency>  (401) 
{u'le': u'0.37', u'bei': u'19.04', u'sei': u'6.18', u'lle': u'4.53'}

>  <standard_flag>  (401) 
True

>  <molecule_chembl_id>  (401) 
CHEMBL1241677

>  <target_organism>  (401) 
Homo sapiens

>  <standard_units>  (401) 
nM

>  <record_id>  (401) 
952523

>  <document_chembl_id>  (401) 
CHEMBL1240340

>  <bao_format>  (401) 
BAO_0000357

>  <data_validity_description>  (401) 
None

>  <activity_id>  (401) 
3442972

>  <standard_type>  (401) 
IC50

>  <target_chembl_id>  (401) 
CHEMBL1862

>  <data_validity_comment>  (401) 
None

>  <published_value>  (401) 
0.505

>  <document_year>  (401) 
2008

>  <target_pref_name>  (401) 
Tyrosine-protein kinase ABL

>  <assay_chembl_id>  (401) 
CHEMBL1243972

>  <standard_relation>  (401) 
=

>  <assay_description>  (401) 
Inhibition of recombinant c-Abl by radioactive phosphotransfer assay in presence of 10 uM ATP

>  <published_relation>  (401) 
=

>  <standard_value>  (401) 
505

>  <qudt_units>  (401) 
http://www.openphacts.org/units/Nanomolar

>  <target_tax_id>  (401) 
9606

>  <bao_label>  (401) 
single protein format

>  <published_units>  (401) 
uM

>  <pchembl_value>  (401) 
6.3

>  <published_type>  (401) 
IC50

>  <activity_comment>  (401) 
None

$$$$

     RDKit          

 23 26  0  0  0  0  0  0  0  0999 V2000
    0.0000    0.0000    0.0000 N   0  0  0  0  0  0  0  0  0  0  0  0
    0.0000    0.0000    0.0000 C   0  0  0  0  0  0  0  0  0  0  0  0
    0.0000    0.0000    0.0000 N   0  0  0  0  0  0  0  0  0  0  0  0
    0.0000    0.0000    0.0000 C   0  0  0  0  0  0  0  0  0  0  0  0
    0.0000    0.0000    0.0000 N   0  0  0  0  0  0  0  0  0  0  0  0
    0.0000    0.0000    0.0000 C   0  0  0  0  0  0  0  0  0  0  0  0
    0.0000    0.0000    0.0000 C   0  0  0  0  0  0  0  0  0  0  0  0
    0.0000    0.0000    0.0000 C   0  0  0  0  0  0  0  0  0  0  0  0
    0.0000    0.0000    0.0000 N   0  0  0  0  0  0  0  0  0  0  0  0
    0.0000    0.0000    0.0000 N   0  0  0  0  0  0  0  0  0  0  0  0
    0.0000    0.0000    0.0000 C   0  0  0  0  0  0  0  0  0  0  0  0
    0.0000    0.0000    0.0000 C   0  0  0  0  0  0  0  0  0  0  0  0
    0.0000    0.0000    0.0000 C   0  0  0  0  0  0  0  0  0  0  0  0
    0.0000    0.0000    0.0000 O   0  0  0  0  0  0  0  0  0  0  0  0
    0.0000    0.0000    0.0000 C   0  0  0  0  0  0  0  0  0  0  0  0
    0.0000    0.0000    0.0000 C   0  0  0  0  0  0  0  0  0  0  0  0
    0.0000    0.0000    0.0000 C   0  0  0  0  0  0  0  0  0  0  0  0
    0.0000    0.0000    0.0000 C   0  0  0  0  0  0  0  0  0  0  0  0
    0.0000    0.0000    0.0000 C   0  0  0  0  0  0  0  0  0  0  0  0
    0.0000    0.0000    0.0000 Cl  0  0  0  0  0  0  0  0  0  0  0  0
    0.0000    0.0000    0.0000 C   0  0  0  0  0  0  0  0  0  0  0  0
    0.0000    0.0000    0.0000 O   0  0  0  0  0  0  0  0  0  0  0  0
    0.0000    0.0000    0.0000 C   0  0  0  0  0  0  0  0  0  0  0  0
  1  2  1  0
  2  3  2  0
  3  4  1  0
  4  5  2  0
  5  6  1  0
  6  7  2  0
  7  8  1  0
  8  9  2  0
  9 10  1  0
 10 11  1  0
 11 12  1  0
 12 13  1  0
 13 14  1  0
 14 15  1  0
  8 16  1  0
 16 17  2  0
 17 18  1  0
 18 19  2  0
 19 20  1  0
 19 21  1  0
 21 22  1  0
 21 23  2  0
  7  2  1  0
 10  6  1  0
 15 11  1  0
 23 16  1  0
M  END
>  <pIC50>  (402) 
7.68

>  <ChEMBL_ID>  (402) 
CHEMBL1241678

>  <document_journal>  (402) 
Nat. Chem. Biol.

>  <bao_endpoint>  (402) 
BAO_0000190

>  <potential_duplicate>  (402) 
False

>  <uo_units>  (402) 
UO_0000065

>  <canonical_smiles>  (402) 
Nc1ncnc2c1c(nn2[C@H]3CCOC3)c4ccc(Cl)c(O)c4

>  <parent_molecule_chembl_id>  (402) 
CHEMBL1241678

>  <assay_type>  (402) 
B

>  <src_id>  (402) 
1

>  <ligand_efficiency>  (402) 
{u'le': u'0.46', u'bei': u'23.14', u'sei': u'7.75', u'lle': u'5.64'}

>  <standard_flag>  (402) 
True

>  <molecule_chembl_id>  (402) 
CHEMBL1241678

>  <target_organism>  (402) 
Homo sapiens

>  <standard_units>  (402) 
nM

>  <record_id>  (402) 
952524

>  <document_chembl_id>  (402) 
CHEMBL1240340

>  <bao_format>  (402) 
BAO_0000357

>  <data_validity_description>  (402) 
None

>  <activity_id>  (402) 
3442986

>  <standard_type>  (402) 
IC50

>  <target_chembl_id>  (402) 
CHEMBL1862

>  <data_validity_comment>  (402) 
None

>  <published_value>  (402) 
0.021

>  <document_year>  (402) 
2008

>  <target_pref_name>  (402) 
Tyrosine-protein kinase ABL

>  <assay_chembl_id>  (402) 
CHEMBL1243972

>  <standard_relation>  (402) 
=

>  <assay_description>  (402) 
Inhibition of recombinant c-Abl by radioactive phosphotransfer assay in presence of 10 uM ATP

>  <published_relation>  (402) 
=

>  <standard_value>  (402) 
21

>  <qudt_units>  (402) 
http://www.openphacts.org/units/Nanomolar

>  <target_tax_id>  (402) 
9606

>  <bao_label>  (402) 
single protein format

>  <published_units>  (402) 
uM

>  <pchembl_value>  (402) 
7.68

>  <published_type>  (402) 
IC50

>  <activity_comment>  (402) 
None

$$$$

     RDKit          

 23 26  0  0  0  0  0  0  0  0999 V2000
    0.0000    0.0000    0.0000 N   0  0  0  0  0  0  0  0  0  0  0  0
    0.0000    0.0000    0.0000 C   0  0  0  0  0  0  0  0  0  0  0  0
    0.0000    0.0000    0.0000 N   0  0  0  0  0  0  0  0  0  0  0  0
    0.0000    0.0000    0.0000 C   0  0  0  0  0  0  0  0  0  0  0  0
    0.0000    0.0000    0.0000 N   0  0  0  0  0  0  0  0  0  0  0  0
    0.0000    0.0000    0.0000 C   0  0  0  0  0  0  0  0  0  0  0  0
    0.0000    0.0000    0.0000 C   0  0  0  0  0  0  0  0  0  0  0  0
    0.0000    0.0000    0.0000 C   0  0  0  0  0  0  0  0  0  0  0  0
    0.0000    0.0000    0.0000 N   0  0  0  0  0  0  0  0  0  0  0  0
    0.0000    0.0000    0.0000 N   0  0  0  0  0  0  0  0  0  0  0  0
    0.0000    0.0000    0.0000 C   0  0  0  0  0  0  0  0  0  0  0  0
    0.0000    0.0000    0.0000 C   0  0  0  0  0  0  0  0  0  0  0  0
    0.0000    0.0000    0.0000 C   0  0  0  0  0  0  0  0  0  0  0  0
    0.0000    0.0000    0.0000 O   0  0  0  0  0  0  0  0  0  0  0  0
    0.0000    0.0000    0.0000 C   0  0  0  0  0  0  0  0  0  0  0  0
    0.0000    0.0000    0.0000 C   0  0  0  0  0  0  0  0  0  0  0  0
    0.0000    0.0000    0.0000 C   0  0  0  0  0  0  0  0  0  0  0  0
    0.0000    0.0000    0.0000 C   0  0  0  0  0  0  0  0  0  0  0  0
    0.0000    0.0000    0.0000 C   0  0  0  0  0  0  0  0  0  0  0  0
    0.0000    0.0000    0.0000 Cl  0  0  0  0  0  0  0  0  0  0  0  0
    0.0000    0.0000    0.0000 C   0  0  0  0  0  0  0  0  0  0  0  0
    0.0000    0.0000    0.0000 O   0  0  0  0  0  0  0  0  0  0  0  0
    0.0000    0.0000    0.0000 C   0  0  0  0  0  0  0  0  0  0  0  0
  1  2  1  0
  2  3  2  0
  3  4  1  0
  4  5  2  0
  5  6  1  0
  6  7  2  0
  7  8  1  0
  8  9  2  0
  9 10  1  0
 10 11  1  0
 11 12  1  0
 12 13  1  0
 13 14  1  0
 14 15  1  0
  8 16  1  0
 16 17  2  0
 17 18  1  0
 18 19  2  0
 19 20  1  0
 19 21  1  0
 21 22  1  0
 21 23  2  0
  7  2  1  0
 10  6  1  0
 15 11  1  0
 23 16  1  0
M  END
>  <pIC50>  (403) 
7.77

>  <ChEMBL_ID>  (403) 
CHEMBL1241768

>  <document_journal>  (403) 
Nat. Chem. Biol.

>  <bao_endpoint>  (403) 
BAO_0000190

>  <potential_duplicate>  (403) 
False

>  <uo_units>  (403) 
UO_0000065

>  <canonical_smiles>  (403) 
Nc1ncnc2c1c(nn2[C@@H]3CCOC3)c4ccc(Cl)c(O)c4

>  <parent_molecule_chembl_id>  (403) 
CHEMBL1241768

>  <assay_type>  (403) 
B

>  <src_id>  (403) 
1

>  <ligand_efficiency>  (403) 
{u'le': u'0.46', u'bei': u'23.42', u'sei': u'7.84', u'lle': u'5.73'}

>  <standard_flag>  (403) 
True

>  <molecule_chembl_id>  (403) 
CHEMBL1241768

>  <target_organism>  (403) 
Homo sapiens

>  <standard_units>  (403) 
nM

>  <record_id>  (403) 
952660

>  <document_chembl_id>  (403) 
CHEMBL1240340

>  <bao_format>  (403) 
BAO_0000357

>  <data_validity_description>  (403) 
None

>  <activity_id>  (403) 
3443000

>  <standard_type>  (403) 
IC50

>  <target_chembl_id>  (403) 
CHEMBL1862

>  <data_validity_comment>  (403) 
None

>  <published_value>  (403) 
0.017

>  <document_year>  (403) 
2008

>  <target_pref_name>  (403) 
Tyrosine-protein kinase ABL

>  <assay_chembl_id>  (403) 
CHEMBL1243972

>  <standard_relation>  (403) 
=

>  <assay_description>  (403) 
Inhibition of recombinant c-Abl by radioactive phosphotransfer assay in presence of 10 uM ATP

>  <published_relation>  (403) 
=

>  <standard_value>  (403) 
17

>  <qudt_units>  (403) 
http://www.openphacts.org/units/Nanomolar

>  <target_tax_id>  (403) 
9606

>  <bao_label>  (403) 
single protein format

>  <published_units>  (403) 
uM

>  <pchembl_value>  (403) 
7.77

>  <published_type>  (403) 
IC50

>  <activity_comment>  (403) 
None

$$$$

     RDKit          

 24 27  0  0  0  0  0  0  0  0999 V2000
    0.0000    0.0000    0.0000 N   0  0  0  0  0  0  0  0  0  0  0  0
    0.0000    0.0000    0.0000 C   0  0  0  0  0  0  0  0  0  0  0  0
    0.0000    0.0000    0.0000 N   0  0  0  0  0  0  0  0  0  0  0  0
    0.0000    0.0000    0.0000 C   0  0  0  0  0  0  0  0  0  0  0  0
    0.0000    0.0000    0.0000 N   0  0  0  0  0  0  0  0  0  0  0  0
    0.0000    0.0000    0.0000 C   0  0  0  0  0  0  0  0  0  0  0  0
    0.0000    0.0000    0.0000 C   0  0  0  0  0  0  0  0  0  0  0  0
    0.0000    0.0000    0.0000 C   0  0  0  0  0  0  0  0  0  0  0  0
    0.0000    0.0000    0.0000 N   0  0  0  0  0  0  0  0  0  0  0  0
    0.0000    0.0000    0.0000 N   0  0  0  0  0  0  0  0  0  0  0  0
    0.0000    0.0000    0.0000 C   0  0  0  0  0  0  0  0  0  0  0  0
    0.0000    0.0000    0.0000 C   0  0  0  0  0  0  0  0  0  0  0  0
    0.0000    0.0000    0.0000 C   0  0  0  0  0  0  0  0  0  0  0  0
    0.0000    0.0000    0.0000 C   0  0  0  0  0  0  0  0  0  0  0  0
    0.0000    0.0000    0.0000 C   0  0  0  0  0  0  0  0  0  0  0  0
    0.0000    0.0000    0.0000 N   0  0  0  0  0  0  0  0  0  0  0  0
    0.0000    0.0000    0.0000 C   0  0  0  0  0  0  0  0  0  0  0  0
    0.0000    0.0000    0.0000 C   0  0  0  0  0  0  0  0  0  0  0  0
    0.0000    0.0000    0.0000 C   0  0  0  0  0  0  0  0  0  0  0  0
    0.0000    0.0000    0.0000 C   0  0  0  0  0  0  0  0  0  0  0  0
    0.0000    0.0000    0.0000 Cl  0  0  0  0  0  0  0  0  0  0  0  0
    0.0000    0.0000    0.0000 C   0  0  0  0  0  0  0  0  0  0  0  0
    0.0000    0.0000    0.0000 O   0  0  0  0  0  0  0  0  0  0  0  0
    0.0000    0.0000    0.0000 C   0  0  0  0  0  0  0  0  0  0  0  0
  1  2  1  0
  2  3  2  0
  3  4  1  0
  4  5  2  0
  5  6  1  0
  6  7  2  0
  7  8  1  0
  8  9  2  0
  9 10  1  0
 10 11  1  0
 11 12  1  0
 12 13  1  0
 13 14  1  0
 14 15  1  0
 15 16  1  0
  8 17  1  0
 17 18  2  0
 18 19  1  0
 19 20  2  0
 20 21  1  0
 20 22  1  0
 22 23  1  0
 22 24  2  0
  7  2  1  0
 10  6  1  0
 16 12  1  0
 24 17  1  0
M  END
>  <pIC50>  (404) 
5.98

>  <ChEMBL_ID>  (404) 
CHEMBL1241769

>  <document_journal>  (404) 
Nat. Chem. Biol.

>  <bao_endpoint>  (404) 
BAO_0000190

>  <potential_duplicate>  (404) 
False

>  <uo_units>  (404) 
UO_0000065

>  <canonical_smiles>  (404) 
Nc1ncnc2c1c(nn2CC3CCCN3)c4ccc(Cl)c(O)c4

>  <parent_molecule_chembl_id>  (404) 
CHEMBL1241769

>  <assay_type>  (404) 
B

>  <src_id>  (404) 
1

>  <ligand_efficiency>  (404) 
{u'le': u'0.34', u'bei': u'17.35', u'sei': u'5.87', u'lle': u'3.63'}

>  <standard_flag>  (404) 
True

>  <molecule_chembl_id>  (404) 
CHEMBL1241769

>  <target_organism>  (404) 
Homo sapiens

>  <standard_units>  (404) 
nM

>  <record_id>  (404) 
952661

>  <document_chembl_id>  (404) 
CHEMBL1240340

>  <bao_format>  (404) 
BAO_0000357

>  <data_validity_description>  (404) 
None

>  <activity_id>  (404) 
3443014

>  <standard_type>  (404) 
IC50

>  <target_chembl_id>  (404) 
CHEMBL1862

>  <data_validity_comment>  (404) 
None

>  <published_value>  (404) 
1.044

>  <document_year>  (404) 
2008

>  <target_pref_name>  (404) 
Tyrosine-protein kinase ABL

>  <assay_chembl_id>  (404) 
CHEMBL1243972

>  <standard_relation>  (404) 
=

>  <assay_description>  (404) 
Inhibition of recombinant c-Abl by radioactive phosphotransfer assay in presence of 10 uM ATP

>  <published_relation>  (404) 
=

>  <standard_value>  (404) 
1044

>  <qudt_units>  (404) 
http://www.openphacts.org/units/Nanomolar

>  <target_tax_id>  (404) 
9606

>  <bao_label>  (404) 
single protein format

>  <published_units>  (404) 
uM

>  <pchembl_value>  (404) 
5.98

>  <published_type>  (404) 
IC50

>  <activity_comment>  (404) 
None

$$$$

     RDKit          

 24 27  0  0  0  0  0  0  0  0999 V2000
    0.0000    0.0000    0.0000 N   0  0  0  0  0  0  0  0  0  0  0  0
    0.0000    0.0000    0.0000 C   0  0  0  0  0  0  0  0  0  0  0  0
    0.0000    0.0000    0.0000 N   0  0  0  0  0  0  0  0  0  0  0  0
    0.0000    0.0000    0.0000 C   0  0  0  0  0  0  0  0  0  0  0  0
    0.0000    0.0000    0.0000 N   0  0  0  0  0  0  0  0  0  0  0  0
    0.0000    0.0000    0.0000 C   0  0  0  0  0  0  0  0  0  0  0  0
    0.0000    0.0000    0.0000 C   0  0  0  0  0  0  0  0  0  0  0  0
    0.0000    0.0000    0.0000 C   0  0  0  0  0  0  0  0  0  0  0  0
    0.0000    0.0000    0.0000 N   0  0  0  0  0  0  0  0  0  0  0  0
    0.0000    0.0000    0.0000 N   0  0  0  0  0  0  0  0  0  0  0  0
    0.0000    0.0000    0.0000 C   0  0  0  0  0  0  0  0  0  0  0  0
    0.0000    0.0000    0.0000 C   0  0  0  0  0  0  0  0  0  0  0  0
    0.0000    0.0000    0.0000 C   0  0  0  0  0  0  0  0  0  0  0  0
    0.0000    0.0000    0.0000 C   0  0  0  0  0  0  0  0  0  0  0  0
    0.0000    0.0000    0.0000 N   0  0  0  0  0  0  0  0  0  0  0  0
    0.0000    0.0000    0.0000 C   0  0  0  0  0  0  0  0  0  0  0  0
    0.0000    0.0000    0.0000 C   0  0  0  0  0  0  0  0  0  0  0  0
    0.0000    0.0000    0.0000 C   0  0  0  0  0  0  0  0  0  0  0  0
    0.0000    0.0000    0.0000 C   0  0  0  0  0  0  0  0  0  0  0  0
    0.0000    0.0000    0.0000 C   0  0  0  0  0  0  0  0  0  0  0  0
    0.0000    0.0000    0.0000 Cl  0  0  0  0  0  0  0  0  0  0  0  0
    0.0000    0.0000    0.0000 C   0  0  0  0  0  0  0  0  0  0  0  0
    0.0000    0.0000    0.0000 O   0  0  0  0  0  0  0  0  0  0  0  0
    0.0000    0.0000    0.0000 C   0  0  0  0  0  0  0  0  0  0  0  0
  1  2  1  0
  2  3  2  0
  3  4  1  0
  4  5  2  0
  5  6  1  0
  6  7  2  0
  7  8  1  0
  8  9  2  0
  9 10  1  0
 10 11  1  0
 11 12  1  0
 12 13  1  0
 13 14  1  0
 14 15  1  0
 15 16  1  0
  8 17  1  0
 17 18  2  0
 18 19  1  0
 19 20  2  0
 20 21  1  0
 20 22  1  0
 22 23  1  0
 22 24  2  0
  7  2  1  0
 10  6  1  0
 16 12  1  0
 24 17  1  0
M  END
>  <pIC50>  (405) 
7.09

>  <ChEMBL_ID>  (405) 
CHEMBL1241770

>  <document_journal>  (405) 
Nat. Chem. Biol.

>  <bao_endpoint>  (405) 
BAO_0000190

>  <potential_duplicate>  (405) 
False

>  <uo_units>  (405) 
UO_0000065

>  <canonical_smiles>  (405) 
Nc1ncnc2c1c(nn2CC3CCNC3)c4ccc(Cl)c(O)c4

>  <parent_molecule_chembl_id>  (405) 
CHEMBL1241770

>  <assay_type>  (405) 
B

>  <src_id>  (405) 
1

>  <ligand_efficiency>  (405) 
{u'le': u'0.4', u'bei': u'20.55', u'sei': u'6.96', u'lle': u'5.13'}

>  <standard_flag>  (405) 
True

>  <molecule_chembl_id>  (405) 
CHEMBL1241770

>  <target_organism>  (405) 
Homo sapiens

>  <standard_units>  (405) 
nM

>  <record_id>  (405) 
952662

>  <document_chembl_id>  (405) 
CHEMBL1240340

>  <bao_format>  (405) 
BAO_0000357

>  <data_validity_description>  (405) 
None

>  <activity_id>  (405) 
3443028

>  <standard_type>  (405) 
IC50

>  <target_chembl_id>  (405) 
CHEMBL1862

>  <data_validity_comment>  (405) 
None

>  <published_value>  (405) 
0.082

>  <document_year>  (405) 
2008

>  <target_pref_name>  (405) 
Tyrosine-protein kinase ABL

>  <assay_chembl_id>  (405) 
CHEMBL1243972

>  <standard_relation>  (405) 
=

>  <assay_description>  (405) 
Inhibition of recombinant c-Abl by radioactive phosphotransfer assay in presence of 10 uM ATP

>  <published_relation>  (405) 
=

>  <standard_value>  (405) 
82

>  <qudt_units>  (405) 
http://www.openphacts.org/units/Nanomolar

>  <target_tax_id>  (405) 
9606

>  <bao_label>  (405) 
single protein format

>  <published_units>  (405) 
uM

>  <pchembl_value>  (405) 
7.09

>  <published_type>  (405) 
IC50

>  <activity_comment>  (405) 
None

$$$$

     RDKit          

 25 28  0  0  0  0  0  0  0  0999 V2000
    0.0000    0.0000    0.0000 N   0  0  0  0  0  0  0  0  0  0  0  0
    0.0000    0.0000    0.0000 C   0  0  0  0  0  0  0  0  0  0  0  0
    0.0000    0.0000    0.0000 N   0  0  0  0  0  0  0  0  0  0  0  0
    0.0000    0.0000    0.0000 C   0  0  0  0  0  0  0  0  0  0  0  0
    0.0000    0.0000    0.0000 N   0  0  0  0  0  0  0  0  0  0  0  0
    0.0000    0.0000    0.0000 C   0  0  0  0  0  0  0  0  0  0  0  0
    0.0000    0.0000    0.0000 C   0  0  0  0  0  0  0  0  0  0  0  0
    0.0000    0.0000    0.0000 C   0  0  0  0  0  0  0  0  0  0  0  0
    0.0000    0.0000    0.0000 N   0  0  0  0  0  0  0  0  0  0  0  0
    0.0000    0.0000    0.0000 N   0  0  0  0  0  0  0  0  0  0  0  0
    0.0000    0.0000    0.0000 C   0  0  0  0  0  0  0  0  0  0  0  0
    0.0000    0.0000    0.0000 C   0  0  0  0  0  0  0  0  0  0  0  0
    0.0000    0.0000    0.0000 C   0  0  0  0  0  0  0  0  0  0  0  0
    0.0000    0.0000    0.0000 C   0  0  0  0  0  0  0  0  0  0  0  0
    0.0000    0.0000    0.0000 C   0  0  0  0  0  0  0  0  0  0  0  0
    0.0000    0.0000    0.0000 N   0  0  0  0  0  0  0  0  0  0  0  0
    0.0000    0.0000    0.0000 C   0  0  0  0  0  0  0  0  0  0  0  0
    0.0000    0.0000    0.0000 C   0  0  0  0  0  0  0  0  0  0  0  0
    0.0000    0.0000    0.0000 C   0  0  0  0  0  0  0  0  0  0  0  0
    0.0000    0.0000    0.0000 C   0  0  0  0  0  0  0  0  0  0  0  0
    0.0000    0.0000    0.0000 C   0  0  0  0  0  0  0  0  0  0  0  0
    0.0000    0.0000    0.0000 Cl  0  0  0  0  0  0  0  0  0  0  0  0
    0.0000    0.0000    0.0000 C   0  0  0  0  0  0  0  0  0  0  0  0
    0.0000    0.0000    0.0000 O   0  0  0  0  0  0  0  0  0  0  0  0
    0.0000    0.0000    0.0000 C   0  0  0  0  0  0  0  0  0  0  0  0
  1  2  1  0
  2  3  2  0
  3  4  1  0
  4  5  2  0
  5  6  1  0
  6  7  2  0
  7  8  1  0
  8  9  2  0
  9 10  1  0
 10 11  1  0
 11 12  1  0
 12 13  1  0
 13 14  1  0
 14 15  1  0
 15 16  1  0
 16 17  1  0
  8 18  1  0
 18 19  2  0
 19 20  1  0
 20 21  2  0
 21 22  1  0
 21 23  1  0
 23 24  1  0
 23 25  2  0
  7  2  1  0
 10  6  1  0
 17 12  1  0
 25 18  1  0
M  END
>  <pIC50>  (406) 
5.1

>  <ChEMBL_ID>  (406) 
CHEMBL1241858

>  <document_journal>  (406) 
Nat. Chem. Biol.

>  <bao_endpoint>  (406) 
BAO_0000190

>  <potential_duplicate>  (406) 
False

>  <uo_units>  (406) 
UO_0000065

>  <canonical_smiles>  (406) 
Nc1ncnc2c1c(nn2CC3CCCNC3)c4ccc(Cl)c(O)c4

>  <parent_molecule_chembl_id>  (406) 
CHEMBL1241858

>  <assay_type>  (406) 
B

>  <src_id>  (406) 
1

>  <ligand_efficiency>  (406) 
{u'le': u'0.28', u'bei': u'14.21', u'sei': u'5.01', u'lle': u'2.68'}

>  <standard_flag>  (406) 
True

>  <molecule_chembl_id>  (406) 
CHEMBL1241858

>  <target_organism>  (406) 
Homo sapiens

>  <standard_units>  (406) 
nM

>  <record_id>  (406) 
952791

>  <document_chembl_id>  (406) 
CHEMBL1240340

>  <bao_format>  (406) 
BAO_0000357

>  <data_validity_description>  (406) 
None

>  <activity_id>  (406) 
3443042

>  <standard_type>  (406) 
IC50

>  <target_chembl_id>  (406) 
CHEMBL1862

>  <data_validity_comment>  (406) 
None

>  <published_value>  (406) 
7.93

>  <document_year>  (406) 
2008

>  <target_pref_name>  (406) 
Tyrosine-protein kinase ABL

>  <assay_chembl_id>  (406) 
CHEMBL1243972

>  <standard_relation>  (406) 
=

>  <assay_description>  (406) 
Inhibition of recombinant c-Abl by radioactive phosphotransfer assay in presence of 10 uM ATP

>  <published_relation>  (406) 
=

>  <standard_value>  (406) 
7930

>  <qudt_units>  (406) 
http://www.openphacts.org/units/Nanomolar

>  <target_tax_id>  (406) 
9606

>  <bao_label>  (406) 
single protein format

>  <published_units>  (406) 
uM

>  <pchembl_value>  (406) 
5.1

>  <published_type>  (406) 
IC50

>  <activity_comment>  (406) 
None

$$$$

     RDKit          

 25 28  0  0  0  0  0  0  0  0999 V2000
    0.0000    0.0000    0.0000 N   0  0  0  0  0  0  0  0  0  0  0  0
    0.0000    0.0000    0.0000 C   0  0  0  0  0  0  0  0  0  0  0  0
    0.0000    0.0000    0.0000 N   0  0  0  0  0  0  0  0  0  0  0  0
    0.0000    0.0000    0.0000 C   0  0  0  0  0  0  0  0  0  0  0  0
    0.0000    0.0000    0.0000 N   0  0  0  0  0  0  0  0  0  0  0  0
    0.0000    0.0000    0.0000 C   0  0  0  0  0  0  0  0  0  0  0  0
    0.0000    0.0000    0.0000 C   0  0  0  0  0  0  0  0  0  0  0  0
    0.0000    0.0000    0.0000 C   0  0  0  0  0  0  0  0  0  0  0  0
    0.0000    0.0000    0.0000 N   0  0  0  0  0  0  0  0  0  0  0  0
    0.0000    0.0000    0.0000 N   0  0  0  0  0  0  0  0  0  0  0  0
    0.0000    0.0000    0.0000 C   0  0  0  0  0  0  0  0  0  0  0  0
    0.0000    0.0000    0.0000 C   0  0  0  0  0  0  0  0  0  0  0  0
    0.0000    0.0000    0.0000 C   0  0  0  0  0  0  0  0  0  0  0  0
    0.0000    0.0000    0.0000 C   0  0  0  0  0  0  0  0  0  0  0  0
    0.0000    0.0000    0.0000 N   0  0  0  0  0  0  0  0  0  0  0  0
    0.0000    0.0000    0.0000 C   0  0  0  0  0  0  0  0  0  0  0  0
    0.0000    0.0000    0.0000 C   0  0  0  0  0  0  0  0  0  0  0  0
    0.0000    0.0000    0.0000 C   0  0  0  0  0  0  0  0  0  0  0  0
    0.0000    0.0000    0.0000 C   0  0  0  0  0  0  0  0  0  0  0  0
    0.0000    0.0000    0.0000 C   0  0  0  0  0  0  0  0  0  0  0  0
    0.0000    0.0000    0.0000 C   0  0  0  0  0  0  0  0  0  0  0  0
    0.0000    0.0000    0.0000 Cl  0  0  0  0  0  0  0  0  0  0  0  0
    0.0000    0.0000    0.0000 C   0  0  0  0  0  0  0  0  0  0  0  0
    0.0000    0.0000    0.0000 O   0  0  0  0  0  0  0  0  0  0  0  0
    0.0000    0.0000    0.0000 C   0  0  0  0  0  0  0  0  0  0  0  0
  1  2  1  0
  2  3  2  0
  3  4  1  0
  4  5  2  0
  5  6  1  0
  6  7  2  0
  7  8  1  0
  8  9  2  0
  9 10  1  0
 10 11  1  0
 11 12  1  0
 12 13  1  0
 13 14  1  0
 14 15  1  0
 15 16  1  0
 16 17  1  0
  8 18  1  0
 18 19  2  0
 19 20  1  0
 20 21  2  0
 21 22  1  0
 21 23  1  0
 23 24  1  0
 23 25  2  0
  7  2  1  0
 10  6  1  0
 17 12  1  0
 25 18  1  0
M  END
>  <pIC50>  (407) 
5.35

>  <ChEMBL_ID>  (407) 
CHEMBL1241859

>  <document_journal>  (407) 
Nat. Chem. Biol.

>  <bao_endpoint>  (407) 
BAO_0000190

>  <potential_duplicate>  (407) 
False

>  <uo_units>  (407) 
UO_0000065

>  <canonical_smiles>  (407) 
Nc1ncnc2c1c(nn2CC3CCNCC3)c4ccc(Cl)c(O)c4

>  <parent_molecule_chembl_id>  (407) 
CHEMBL1241859

>  <assay_type>  (407) 
B

>  <src_id>  (407) 
1

>  <ligand_efficiency>  (407) 
{u'le': u'0.29', u'bei': u'14.9', u'sei': u'5.25', u'lle': u'2.94'}

>  <standard_flag>  (407) 
True

>  <molecule_chembl_id>  (407) 
CHEMBL1241859

>  <target_organism>  (407) 
Homo sapiens

>  <standard_units>  (407) 
nM

>  <record_id>  (407) 
952792

>  <document_chembl_id>  (407) 
CHEMBL1240340

>  <bao_format>  (407) 
BAO_0000357

>  <data_validity_description>  (407) 
None

>  <activity_id>  (407) 
3443056

>  <standard_type>  (407) 
IC50

>  <target_chembl_id>  (407) 
CHEMBL1862

>  <data_validity_comment>  (407) 
None

>  <published_value>  (407) 
4.5

>  <document_year>  (407) 
2008

>  <target_pref_name>  (407) 
Tyrosine-protein kinase ABL

>  <assay_chembl_id>  (407) 
CHEMBL1243972

>  <standard_relation>  (407) 
=

>  <assay_description>  (407) 
Inhibition of recombinant c-Abl by radioactive phosphotransfer assay in presence of 10 uM ATP

>  <published_relation>  (407) 
=

>  <standard_value>  (407) 
4500

>  <qudt_units>  (407) 
http://www.openphacts.org/units/Nanomolar

>  <target_tax_id>  (407) 
9606

>  <bao_label>  (407) 
single protein format

>  <published_units>  (407) 
uM

>  <pchembl_value>  (407) 
5.35

>  <published_type>  (407) 
IC50

>  <activity_comment>  (407) 
None

$$$$

     RDKit          

 26 29  0  0  0  0  0  0  0  0999 V2000
    0.0000    0.0000    0.0000 N   0  0  0  0  0  0  0  0  0  0  0  0
    0.0000    0.0000    0.0000 C   0  0  0  0  0  0  0  0  0  0  0  0
    0.0000    0.0000    0.0000 N   0  0  0  0  0  0  0  0  0  0  0  0
    0.0000    0.0000    0.0000 C   0  0  0  0  0  0  0  0  0  0  0  0
    0.0000    0.0000    0.0000 N   0  0  0  0  0  0  0  0  0  0  0  0
    0.0000    0.0000    0.0000 C   0  0  0  0  0  0  0  0  0  0  0  0
    0.0000    0.0000    0.0000 C   0  0  0  0  0  0  0  0  0  0  0  0
    0.0000    0.0000    0.0000 C   0  0  0  0  0  0  0  0  0  0  0  0
    0.0000    0.0000    0.0000 N   0  0  0  0  0  0  0  0  0  0  0  0
    0.0000    0.0000    0.0000 N   0  0  0  0  0  0  0  0  0  0  0  0
    0.0000    0.0000    0.0000 C   0  0  0  0  0  0  0  0  0  0  0  0
    0.0000    0.0000    0.0000 C   0  0  0  0  0  0  0  0  0  0  0  0
    0.0000    0.0000    0.0000 C   0  0  0  0  0  0  0  0  0  0  0  0
    0.0000    0.0000    0.0000 C   0  0  0  0  0  0  0  0  0  0  0  0
    0.0000    0.0000    0.0000 C   0  0  0  0  0  0  0  0  0  0  0  0
    0.0000    0.0000    0.0000 C   0  0  0  0  0  0  0  0  0  0  0  0
    0.0000    0.0000    0.0000 N   0  0  0  0  0  0  0  0  0  0  0  0
    0.0000    0.0000    0.0000 C   0  0  0  0  0  0  0  0  0  0  0  0
    0.0000    0.0000    0.0000 C   0  0  0  0  0  0  0  0  0  0  0  0
    0.0000    0.0000    0.0000 C   0  0  0  0  0  0  0  0  0  0  0  0
    0.0000    0.0000    0.0000 C   0  0  0  0  0  0  0  0  0  0  0  0
    0.0000    0.0000    0.0000 C   0  0  0  0  0  0  0  0  0  0  0  0
    0.0000    0.0000    0.0000 Cl  0  0  0  0  0  0  0  0  0  0  0  0
    0.0000    0.0000    0.0000 C   0  0  0  0  0  0  0  0  0  0  0  0
    0.0000    0.0000    0.0000 O   0  0  0  0  0  0  0  0  0  0  0  0
    0.0000    0.0000    0.0000 C   0  0  0  0  0  0  0  0  0  0  0  0
  1  2  1  0
  2  3  2  0
  3  4  1  0
  4  5  2  0
  5  6  1  0
  6  7  2  0
  7  8  1  0
  8  9  2  0
  9 10  1  0
 10 11  1  0
 11 12  1  0
 12 13  1  0
 13 14  1  0
 14 15  1  0
 15 16  1  0
 16 17  1  0
 17 18  1  0
  8 19  1  0
 19 20  2  0
 20 21  1  0
 21 22  2  0
 22 23  1  0
 22 24  1  0
 24 25  1  0
 24 26  2  0
  7  2  1  0
 10  6  1  0
 18 13  1  0
 26 19  1  0
M  END
>  <pIC50>  (408) 
5.89

>  <ChEMBL_ID>  (408) 
CHEMBL1241943

>  <document_journal>  (408) 
Nat. Chem. Biol.

>  <bao_endpoint>  (408) 
BAO_0000190

>  <potential_duplicate>  (408) 
False

>  <uo_units>  (408) 
UO_0000065

>  <canonical_smiles>  (408) 
Nc1ncnc2c1c(nn2CCC3CCCNC3)c4ccc(Cl)c(O)c4

>  <parent_molecule_chembl_id>  (408) 
CHEMBL1241943

>  <assay_type>  (408) 
B

>  <src_id>  (408) 
1

>  <ligand_efficiency>  (408) 
{u'le': u'0.31', u'bei': u'15.8', u'sei': u'5.78', u'lle': u'3.02'}

>  <standard_flag>  (408) 
True

>  <molecule_chembl_id>  (408) 
CHEMBL1241943

>  <target_organism>  (408) 
Homo sapiens

>  <standard_units>  (408) 
nM

>  <record_id>  (408) 
952922

>  <document_chembl_id>  (408) 
CHEMBL1240340

>  <bao_format>  (408) 
BAO_0000357

>  <data_validity_description>  (408) 
None

>  <activity_id>  (408) 
3443070

>  <standard_type>  (408) 
IC50

>  <target_chembl_id>  (408) 
CHEMBL1862

>  <data_validity_comment>  (408) 
None

>  <published_value>  (408) 
1.28

>  <document_year>  (408) 
2008

>  <target_pref_name>  (408) 
Tyrosine-protein kinase ABL

>  <assay_chembl_id>  (408) 
CHEMBL1243972

>  <standard_relation>  (408) 
=

>  <assay_description>  (408) 
Inhibition of recombinant c-Abl by radioactive phosphotransfer assay in presence of 10 uM ATP

>  <published_relation>  (408) 
=

>  <standard_value>  (408) 
1280

>  <qudt_units>  (408) 
http://www.openphacts.org/units/Nanomolar

>  <target_tax_id>  (408) 
9606

>  <bao_label>  (408) 
single protein format

>  <published_units>  (408) 
uM

>  <pchembl_value>  (408) 
5.89

>  <published_type>  (408) 
IC50

>  <activity_comment>  (408) 
None

$$$$

     RDKit          

 22 24  0  0  0  0  0  0  0  0999 V2000
    0.0000    0.0000    0.0000 C   0  0  0  0  0  0  0  0  0  0  0  0
    0.0000    0.0000    0.0000 C   0  0  0  0  0  0  0  0  0  0  0  0
    0.0000    0.0000    0.0000 C   0  0  0  0  0  0  0  0  0  0  0  0
    0.0000    0.0000    0.0000 N   0  0  0  0  0  0  0  0  0  0  0  0
    0.0000    0.0000    0.0000 N   0  0  0  0  0  0  0  0  0  0  0  0
    0.0000    0.0000    0.0000 C   0  0  0  0  0  0  0  0  0  0  0  0
    0.0000    0.0000    0.0000 C   0  0  0  0  0  0  0  0  0  0  0  0
    0.0000    0.0000    0.0000 C   0  0  0  0  0  0  0  0  0  0  0  0
    0.0000    0.0000    0.0000 C   0  0  0  0  0  0  0  0  0  0  0  0
    0.0000    0.0000    0.0000 C   0  0  0  0  0  0  0  0  0  0  0  0
    0.0000    0.0000    0.0000 C   0  0  0  0  0  0  0  0  0  0  0  0
    0.0000    0.0000    0.0000 N   0  0  0  0  0  0  0  0  0  0  0  0
    0.0000    0.0000    0.0000 C   0  0  0  0  0  0  0  0  0  0  0  0
    0.0000    0.0000    0.0000 O   0  0  0  0  0  0  0  0  0  0  0  0
    0.0000    0.0000    0.0000 C   0  0  0  0  0  0  0  0  0  0  0  0
    0.0000    0.0000    0.0000 C   0  0  0  0  0  0  0  0  0  0  0  0
    0.0000    0.0000    0.0000 C   0  0  0  0  0  0  0  0  0  0  0  0
    0.0000    0.0000    0.0000 N   0  0  0  0  0  0  0  0  0  0  0  0
    0.0000    0.0000    0.0000 N   0  0  0  0  0  0  0  0  0  0  0  0
    0.0000    0.0000    0.0000 C   0  0  0  0  0  0  0  0  0  0  0  0
    0.0000    0.0000    0.0000 N   0  0  0  0  0  0  0  0  0  0  0  0
    0.0000    0.0000    0.0000 C   0  0  0  0  0  0  0  0  0  0  0  0
  1  2  1  0
  2  3  1  0
  2  4  1  0
  4  5  1  0
  5  6  2  0
  6  7  1  0
  7  8  2  0
  8  9  1  0
  9 10  2  0
 10 11  1  0
 11 12  3  0
 10 13  1  0
 13 14  1  0
 13 15  2  0
  6 16  1  0
 16 17  2  0
 17 18  1  0
 17 19  1  0
 19 20  2  0
 20 21  1  0
 21 22  2  0
 22  4  1  0
 15  7  1  0
 22 16  1  0
M  END
>  <pIC50>  (409) 
5.96

>  <ChEMBL_ID>  (409) 
CHEMBL1241944

>  <document_journal>  (409) 
Nat. Chem. Biol.

>  <bao_endpoint>  (409) 
BAO_0000190

>  <potential_duplicate>  (409) 
False

>  <uo_units>  (409) 
UO_0000065

>  <canonical_smiles>  (409) 
CC(C)n1nc(c2ccc(C#N)c(O)c2)c3c(N)ncnc13

>  <parent_molecule_chembl_id>  (409) 
CHEMBL1241944

>  <assay_type>  (409) 
B

>  <src_id>  (409) 
1

>  <ligand_efficiency>  (409) 
{u'le': u'0.37', u'bei': u'20.25', u'sei': u'5.24', u'lle': u'3.76'}

>  <standard_flag>  (409) 
True

>  <molecule_chembl_id>  (409) 
CHEMBL1241944

>  <target_organism>  (409) 
Homo sapiens

>  <standard_units>  (409) 
nM

>  <record_id>  (409) 
952923

>  <document_chembl_id>  (409) 
CHEMBL1240340

>  <bao_format>  (409) 
BAO_0000357

>  <data_validity_description>  (409) 
None

>  <activity_id>  (409) 
3443084

>  <standard_type>  (409) 
IC50

>  <target_chembl_id>  (409) 
CHEMBL1862

>  <data_validity_comment>  (409) 
None

>  <published_value>  (409) 
1.1

>  <document_year>  (409) 
2008

>  <target_pref_name>  (409) 
Tyrosine-protein kinase ABL

>  <assay_chembl_id>  (409) 
CHEMBL1243972

>  <standard_relation>  (409) 
=

>  <assay_description>  (409) 
Inhibition of recombinant c-Abl by radioactive phosphotransfer assay in presence of 10 uM ATP

>  <published_relation>  (409) 
=

>  <standard_value>  (409) 
1100

>  <qudt_units>  (409) 
http://www.openphacts.org/units/Nanomolar

>  <target_tax_id>  (409) 
9606

>  <bao_label>  (409) 
single protein format

>  <published_units>  (409) 
uM

>  <pchembl_value>  (409) 
5.96

>  <published_type>  (409) 
IC50

>  <activity_comment>  (409) 
None

$$$$

     RDKit          

 21 23  0  0  0  0  0  0  0  0999 V2000
    0.0000    0.0000    0.0000 C   0  0  0  0  0  0  0  0  0  0  0  0
    0.0000    0.0000    0.0000 C   0  0  0  0  0  0  0  0  0  0  0  0
    0.0000    0.0000    0.0000 C   0  0  0  0  0  0  0  0  0  0  0  0
    0.0000    0.0000    0.0000 N   0  0  0  0  0  0  0  0  0  0  0  0
    0.0000    0.0000    0.0000 N   0  0  0  0  0  0  0  0  0  0  0  0
    0.0000    0.0000    0.0000 C   0  0  0  0  0  0  0  0  0  0  0  0
    0.0000    0.0000    0.0000 C   0  0  0  0  0  0  0  0  0  0  0  0
    0.0000    0.0000    0.0000 C   0  0  0  0  0  0  0  0  0  0  0  0
    0.0000    0.0000    0.0000 C   0  0  0  0  0  0  0  0  0  0  0  0
    0.0000    0.0000    0.0000 C   0  0  0  0  0  0  0  0  0  0  0  0
    0.0000    0.0000    0.0000 O   0  0  0  0  0  0  0  0  0  0  0  0
    0.0000    0.0000    0.0000 C   0  0  0  0  0  0  0  0  0  0  0  0
    0.0000    0.0000    0.0000 F   0  0  0  0  0  0  0  0  0  0  0  0
    0.0000    0.0000    0.0000 C   0  0  0  0  0  0  0  0  0  0  0  0
    0.0000    0.0000    0.0000 C   0  0  0  0  0  0  0  0  0  0  0  0
    0.0000    0.0000    0.0000 C   0  0  0  0  0  0  0  0  0  0  0  0
    0.0000    0.0000    0.0000 N   0  0  0  0  0  0  0  0  0  0  0  0
    0.0000    0.0000    0.0000 N   0  0  0  0  0  0  0  0  0  0  0  0
    0.0000    0.0000    0.0000 C   0  0  0  0  0  0  0  0  0  0  0  0
    0.0000    0.0000    0.0000 N   0  0  0  0  0  0  0  0  0  0  0  0
    0.0000    0.0000    0.0000 C   0  0  0  0  0  0  0  0  0  0  0  0
  1  2  1  0
  2  3  1  0
  2  4  1  0
  4  5  1  0
  5  6  2  0
  6  7  1  0
  7  8  2  0
  8  9  1  0
  9 10  2  0
 10 11  1  0
 10 12  1  0
 12 13  1  0
 12 14  2  0
  6 15  1  0
 15 16  2  0
 16 17  1  0
 16 18  1  0
 18 19  2  0
 19 20  1  0
 20 21  2  0
 21  4  1  0
 14  7  1  0
 21 15  1  0
M  END
>  <pIC50>  (410) 
6.18

>  <ChEMBL_ID>  (410) 
CHEMBL1241945

>  <document_journal>  (410) 
Nat. Chem. Biol.

>  <bao_endpoint>  (410) 
BAO_0000190

>  <potential_duplicate>  (410) 
False

>  <uo_units>  (410) 
UO_0000065

>  <canonical_smiles>  (410) 
CC(C)n1nc(c2ccc(O)c(F)c2)c3c(N)ncnc13

>  <parent_molecule_chembl_id>  (410) 
CHEMBL1241945

>  <assay_type>  (410) 
B

>  <src_id>  (410) 
1

>  <ligand_efficiency>  (410) 
{u'le': u'0.4', u'bei': u'21.5', u'sei': u'6.88', u'lle': u'3.65'}

>  <standard_flag>  (410) 
True

>  <molecule_chembl_id>  (410) 
CHEMBL1241945

>  <target_organism>  (410) 
Homo sapiens

>  <standard_units>  (410) 
nM

>  <record_id>  (410) 
952924

>  <document_chembl_id>  (410) 
CHEMBL1240340

>  <bao_format>  (410) 
BAO_0000357

>  <data_validity_description>  (410) 
None

>  <activity_id>  (410) 
3443098

>  <standard_type>  (410) 
IC50

>  <target_chembl_id>  (410) 
CHEMBL1862

>  <data_validity_comment>  (410) 
None

>  <published_value>  (410) 
0.664

>  <document_year>  (410) 
2008

>  <target_pref_name>  (410) 
Tyrosine-protein kinase ABL

>  <assay_chembl_id>  (410) 
CHEMBL1243972

>  <standard_relation>  (410) 
=

>  <assay_description>  (410) 
Inhibition of recombinant c-Abl by radioactive phosphotransfer assay in presence of 10 uM ATP

>  <published_relation>  (410) 
=

>  <standard_value>  (410) 
664

>  <qudt_units>  (410) 
http://www.openphacts.org/units/Nanomolar

>  <target_tax_id>  (410) 
9606

>  <bao_label>  (410) 
single protein format

>  <published_units>  (410) 
uM

>  <pchembl_value>  (410) 
6.18

>  <published_type>  (410) 
IC50

>  <activity_comment>  (410) 
None

$$$$

     RDKit          

 23 25  0  0  0  0  0  0  0  0999 V2000
    0.0000    0.0000    0.0000 C   0  0  0  0  0  0  0  0  0  0  0  0
    0.0000    0.0000    0.0000 O   0  0  0  0  0  0  0  0  0  0  0  0
    0.0000    0.0000    0.0000 C   0  0  0  0  0  0  0  0  0  0  0  0
    0.0000    0.0000    0.0000 C   0  0  0  0  0  0  0  0  0  0  0  0
    0.0000    0.0000    0.0000 C   0  0  0  0  0  0  0  0  0  0  0  0
    0.0000    0.0000    0.0000 F   0  0  0  0  0  0  0  0  0  0  0  0
    0.0000    0.0000    0.0000 C   0  0  0  0  0  0  0  0  0  0  0  0
    0.0000    0.0000    0.0000 C   0  0  0  0  0  0  0  0  0  0  0  0
    0.0000    0.0000    0.0000 C   0  0  0  0  0  0  0  0  0  0  0  0
    0.0000    0.0000    0.0000 F   0  0  0  0  0  0  0  0  0  0  0  0
    0.0000    0.0000    0.0000 C   0  0  0  0  0  0  0  0  0  0  0  0
    0.0000    0.0000    0.0000 N   0  0  0  0  0  0  0  0  0  0  0  0
    0.0000    0.0000    0.0000 N   0  0  0  0  0  0  0  0  0  0  0  0
    0.0000    0.0000    0.0000 C   0  0  0  0  0  0  0  0  0  0  0  0
    0.0000    0.0000    0.0000 C   0  0  0  0  0  0  0  0  0  0  0  0
    0.0000    0.0000    0.0000 C   0  0  0  0  0  0  0  0  0  0  0  0
    0.0000    0.0000    0.0000 C   0  0  0  0  0  0  0  0  0  0  0  0
    0.0000    0.0000    0.0000 N   0  0  0  0  0  0  0  0  0  0  0  0
    0.0000    0.0000    0.0000 C   0  0  0  0  0  0  0  0  0  0  0  0
    0.0000    0.0000    0.0000 N   0  0  0  0  0  0  0  0  0  0  0  0
    0.0000    0.0000    0.0000 C   0  0  0  0  0  0  0  0  0  0  0  0
    0.0000    0.0000    0.0000 N   0  0  0  0  0  0  0  0  0  0  0  0
    0.0000    0.0000    0.0000 C   0  0  0  0  0  0  0  0  0  0  0  0
  1  2  1  0
  2  3  1  0
  3  4  2  0
  4  5  1  0
  5  6  1  0
  5  7  2  0
  7  8  1  0
  8  9  2  0
  9 10  1  0
  7 11  1  0
 11 12  2  0
 12 13  1  0
 13 14  1  0
 14 15  1  0
 14 16  1  0
 13 17  1  0
 17 18  2  0
 18 19  1  0
 19 20  2  0
 20 21  1  0
 21 22  1  0
 21 23  2  0
  9  3  1  0
 23 11  1  0
 23 17  1  0
M  END
>  <pIC50>  (411) 
5.6

>  <ChEMBL_ID>  (411) 
CHEMBL1242027

>  <document_journal>  (411) 
Nat. Chem. Biol.

>  <bao_endpoint>  (411) 
BAO_0000190

>  <potential_duplicate>  (411) 
False

>  <uo_units>  (411) 
UO_0000065

>  <canonical_smiles>  (411) 
COc1cc(F)c(cc1F)c2nn(C(C)C)c3ncnc(N)c23

>  <parent_molecule_chembl_id>  (411) 
CHEMBL1242027

>  <assay_type>  (411) 
B

>  <src_id>  (411) 
1

>  <ligand_efficiency>  (411) 
{u'le': u'0.33', u'bei': u'17.54', u'sei': u'7.1', u'lle': u'2.64'}

>  <standard_flag>  (411) 
True

>  <molecule_chembl_id>  (411) 
CHEMBL1242027

>  <target_organism>  (411) 
Homo sapiens

>  <standard_units>  (411) 
nM

>  <record_id>  (411) 
953054

>  <document_chembl_id>  (411) 
CHEMBL1240340

>  <bao_format>  (411) 
BAO_0000357

>  <data_validity_description>  (411) 
None

>  <activity_id>  (411) 
3443112

>  <standard_type>  (411) 
IC50

>  <target_chembl_id>  (411) 
CHEMBL1862

>  <data_validity_comment>  (411) 
None

>  <published_value>  (411) 
2.5

>  <document_year>  (411) 
2008

>  <target_pref_name>  (411) 
Tyrosine-protein kinase ABL

>  <assay_chembl_id>  (411) 
CHEMBL1243972

>  <standard_relation>  (411) 
=

>  <assay_description>  (411) 
Inhibition of recombinant c-Abl by radioactive phosphotransfer assay in presence of 10 uM ATP

>  <published_relation>  (411) 
=

>  <standard_value>  (411) 
2500

>  <qudt_units>  (411) 
http://www.openphacts.org/units/Nanomolar

>  <target_tax_id>  (411) 
9606

>  <bao_label>  (411) 
single protein format

>  <published_units>  (411) 
uM

>  <pchembl_value>  (411) 
5.6

>  <published_type>  (411) 
IC50

>  <activity_comment>  (411) 
None

$$$$

     RDKit          

 22 24  0  0  0  0  0  0  0  0999 V2000
    0.0000    0.0000    0.0000 C   0  0  0  0  0  0  0  0  0  0  0  0
    0.0000    0.0000    0.0000 C   0  0  0  0  0  0  0  0  0  0  0  0
    0.0000    0.0000    0.0000 C   0  0  0  0  0  0  0  0  0  0  0  0
    0.0000    0.0000    0.0000 N   0  0  0  0  0  0  0  0  0  0  0  0
    0.0000    0.0000    0.0000 N   0  0  0  0  0  0  0  0  0  0  0  0
    0.0000    0.0000    0.0000 C   0  0  0  0  0  0  0  0  0  0  0  0
    0.0000    0.0000    0.0000 C   0  0  0  0  0  0  0  0  0  0  0  0
    0.0000    0.0000    0.0000 C   0  0  0  0  0  0  0  0  0  0  0  0
    0.0000    0.0000    0.0000 C   0  0  0  0  0  0  0  0  0  0  0  0
    0.0000    0.0000    0.0000 F   0  0  0  0  0  0  0  0  0  0  0  0
    0.0000    0.0000    0.0000 C   0  0  0  0  0  0  0  0  0  0  0  0
    0.0000    0.0000    0.0000 O   0  0  0  0  0  0  0  0  0  0  0  0
    0.0000    0.0000    0.0000 C   0  0  0  0  0  0  0  0  0  0  0  0
    0.0000    0.0000    0.0000 C   0  0  0  0  0  0  0  0  0  0  0  0
    0.0000    0.0000    0.0000 F   0  0  0  0  0  0  0  0  0  0  0  0
    0.0000    0.0000    0.0000 C   0  0  0  0  0  0  0  0  0  0  0  0
    0.0000    0.0000    0.0000 C   0  0  0  0  0  0  0  0  0  0  0  0
    0.0000    0.0000    0.0000 N   0  0  0  0  0  0  0  0  0  0  0  0
    0.0000    0.0000    0.0000 N   0  0  0  0  0  0  0  0  0  0  0  0
    0.0000    0.0000    0.0000 C   0  0  0  0  0  0  0  0  0  0  0  0
    0.0000    0.0000    0.0000 N   0  0  0  0  0  0  0  0  0  0  0  0
    0.0000    0.0000    0.0000 C   0  0  0  0  0  0  0  0  0  0  0  0
  1  2  1  0
  2  3  1  0
  2  4  1  0
  4  5  1  0
  5  6  2  0
  6  7  1  0
  7  8  2  0
  8  9  1  0
  9 10  1  0
  9 11  2  0
 11 12  1  0
 11 13  1  0
 13 14  2  0
 14 15  1  0
  6 16  1  0
 16 17  2  0
 17 18  1  0
 17 19  1  0
 19 20  2  0
 20 21  1  0
 21 22  2  0
 22  4  1  0
 14  7  1  0
 22 16  1  0
M  END
>  <pIC50>  (412) 
5.72

>  <ChEMBL_ID>  (412) 
CHEMBL1242028

>  <document_journal>  (412) 
Nat. Chem. Biol.

>  <bao_endpoint>  (412) 
BAO_0000190

>  <potential_duplicate>  (412) 
False

>  <uo_units>  (412) 
UO_0000065

>  <canonical_smiles>  (412) 
CC(C)n1nc(c2cc(F)c(O)cc2F)c3c(N)ncnc13

>  <parent_molecule_chembl_id>  (412) 
CHEMBL1242028

>  <assay_type>  (412) 
B

>  <src_id>  (412) 
1

>  <ligand_efficiency>  (412) 
{u'le': u'0.36', u'bei': u'18.74', u'sei': u'6.37', u'lle': u'2.99'}

>  <standard_flag>  (412) 
True

>  <molecule_chembl_id>  (412) 
CHEMBL1242028

>  <target_organism>  (412) 
Homo sapiens

>  <standard_units>  (412) 
nM

>  <record_id>  (412) 
953055

>  <document_chembl_id>  (412) 
CHEMBL1240340

>  <bao_format>  (412) 
BAO_0000357

>  <data_validity_description>  (412) 
None

>  <activity_id>  (412) 
3443126

>  <standard_type>  (412) 
IC50

>  <target_chembl_id>  (412) 
CHEMBL1862

>  <data_validity_comment>  (412) 
None

>  <published_value>  (412) 
1.9

>  <document_year>  (412) 
2008

>  <target_pref_name>  (412) 
Tyrosine-protein kinase ABL

>  <assay_chembl_id>  (412) 
CHEMBL1243972

>  <standard_relation>  (412) 
=

>  <assay_description>  (412) 
Inhibition of recombinant c-Abl by radioactive phosphotransfer assay in presence of 10 uM ATP

>  <published_relation>  (412) 
=

>  <standard_value>  (412) 
1900

>  <qudt_units>  (412) 
http://www.openphacts.org/units/Nanomolar

>  <target_tax_id>  (412) 
9606

>  <bao_label>  (412) 
single protein format

>  <published_units>  (412) 
uM

>  <pchembl_value>  (412) 
5.72

>  <published_type>  (412) 
IC50

>  <activity_comment>  (412) 
None

$$$$

     RDKit          

 21 23  0  0  0  0  0  0  0  0999 V2000
    0.0000    0.0000    0.0000 C   0  0  0  0  0  0  0  0  0  0  0  0
    0.0000    0.0000    0.0000 O   0  0  0  0  0  0  0  0  0  0  0  0
    0.0000    0.0000    0.0000 C   0  0  0  0  0  0  0  0  0  0  0  0
    0.0000    0.0000    0.0000 C   0  0  0  0  0  0  0  0  0  0  0  0
    0.0000    0.0000    0.0000 C   0  0  0  0  0  0  0  0  0  0  0  0
    0.0000    0.0000    0.0000 C   0  0  0  0  0  0  0  0  0  0  0  0
    0.0000    0.0000    0.0000 C   0  0  0  0  0  0  0  0  0  0  0  0
    0.0000    0.0000    0.0000 C   0  0  0  0  0  0  0  0  0  0  0  0
    0.0000    0.0000    0.0000 C   0  0  0  0  0  0  0  0  0  0  0  0
    0.0000    0.0000    0.0000 N   0  0  0  0  0  0  0  0  0  0  0  0
    0.0000    0.0000    0.0000 N   0  0  0  0  0  0  0  0  0  0  0  0
    0.0000    0.0000    0.0000 C   0  0  0  0  0  0  0  0  0  0  0  0
    0.0000    0.0000    0.0000 C   0  0  0  0  0  0  0  0  0  0  0  0
    0.0000    0.0000    0.0000 C   0  0  0  0  0  0  0  0  0  0  0  0
    0.0000    0.0000    0.0000 C   0  0  0  0  0  0  0  0  0  0  0  0
    0.0000    0.0000    0.0000 N   0  0  0  0  0  0  0  0  0  0  0  0
    0.0000    0.0000    0.0000 C   0  0  0  0  0  0  0  0  0  0  0  0
    0.0000    0.0000    0.0000 N   0  0  0  0  0  0  0  0  0  0  0  0
    0.0000    0.0000    0.0000 C   0  0  0  0  0  0  0  0  0  0  0  0
    0.0000    0.0000    0.0000 N   0  0  0  0  0  0  0  0  0  0  0  0
    0.0000    0.0000    0.0000 C   0  0  0  0  0  0  0  0  0  0  0  0
  1  2  1  0
  2  3  1  0
  3  4  2  0
  4  5  1  0
  5  6  2  0
  6  7  1  0
  7  8  2  0
  7  9  1  0
  9 10  2  0
 10 11  1  0
 11 12  1  0
 12 13  1  0
 12 14  1  0
 11 15  1  0
 15 16  2  0
 16 17  1  0
 17 18  2  0
 18 19  1  0
 19 20  1  0
 19 21  2  0
  8  3  1  0
 21  9  1  0
 21 15  1  0
M  END
>  <pIC50>  (413) 
5.77

>  <ChEMBL_ID>  (413) 
CHEMBL1242029

>  <document_journal>  (413) 
Nat. Chem. Biol.

>  <bao_endpoint>  (413) 
BAO_0000190

>  <potential_duplicate>  (413) 
False

>  <uo_units>  (413) 
UO_0000065

>  <canonical_smiles>  (413) 
COc1cccc(c1)c2nn(C(C)C)c3ncnc(N)c23

>  <parent_molecule_chembl_id>  (413) 
CHEMBL1242029

>  <assay_type>  (413) 
B

>  <src_id>  (413) 
1

>  <ligand_efficiency>  (413) 
{u'le': u'0.38', u'bei': u'20.36', u'sei': u'7.32', u'lle': u'3.22'}

>  <standard_flag>  (413) 
True

>  <molecule_chembl_id>  (413) 
CHEMBL1242029

>  <target_organism>  (413) 
Homo sapiens

>  <standard_units>  (413) 
nM

>  <record_id>  (413) 
953056

>  <document_chembl_id>  (413) 
CHEMBL1240340

>  <bao_format>  (413) 
BAO_0000357

>  <data_validity_description>  (413) 
None

>  <activity_id>  (413) 
3443140

>  <standard_type>  (413) 
IC50

>  <target_chembl_id>  (413) 
CHEMBL1862

>  <data_validity_comment>  (413) 
None

>  <published_value>  (413) 
1.7

>  <document_year>  (413) 
2008

>  <target_pref_name>  (413) 
Tyrosine-protein kinase ABL

>  <assay_chembl_id>  (413) 
CHEMBL1243972

>  <standard_relation>  (413) 
=

>  <assay_description>  (413) 
Inhibition of recombinant c-Abl by radioactive phosphotransfer assay in presence of 10 uM ATP

>  <published_relation>  (413) 
=

>  <standard_value>  (413) 
1700

>  <qudt_units>  (413) 
http://www.openphacts.org/units/Nanomolar

>  <target_tax_id>  (413) 
9606

>  <bao_label>  (413) 
single protein format

>  <published_units>  (413) 
uM

>  <pchembl_value>  (413) 
5.77

>  <published_type>  (413) 
IC50

>  <activity_comment>  (413) 
None

$$$$

     RDKit          

 22 24  0  0  0  0  0  0  0  0999 V2000
    0.0000    0.0000    0.0000 C   0  0  0  0  0  0  0  0  0  0  0  0
    0.0000    0.0000    0.0000 O   0  0  0  0  0  0  0  0  0  0  0  0
    0.0000    0.0000    0.0000 C   0  0  0  0  0  0  0  0  0  0  0  0
    0.0000    0.0000    0.0000 C   0  0  0  0  0  0  0  0  0  0  0  0
    0.0000    0.0000    0.0000 C   0  0  0  0  0  0  0  0  0  0  0  0
    0.0000    0.0000    0.0000 C   0  0  0  0  0  0  0  0  0  0  0  0
    0.0000    0.0000    0.0000 C   0  0  0  0  0  0  0  0  0  0  0  0
    0.0000    0.0000    0.0000 C   0  0  0  0  0  0  0  0  0  0  0  0
    0.0000    0.0000    0.0000 O   0  0  0  0  0  0  0  0  0  0  0  0
    0.0000    0.0000    0.0000 C   0  0  0  0  0  0  0  0  0  0  0  0
    0.0000    0.0000    0.0000 N   0  0  0  0  0  0  0  0  0  0  0  0
    0.0000    0.0000    0.0000 N   0  0  0  0  0  0  0  0  0  0  0  0
    0.0000    0.0000    0.0000 C   0  0  0  0  0  0  0  0  0  0  0  0
    0.0000    0.0000    0.0000 C   0  0  0  0  0  0  0  0  0  0  0  0
    0.0000    0.0000    0.0000 C   0  0  0  0  0  0  0  0  0  0  0  0
    0.0000    0.0000    0.0000 C   0  0  0  0  0  0  0  0  0  0  0  0
    0.0000    0.0000    0.0000 N   0  0  0  0  0  0  0  0  0  0  0  0
    0.0000    0.0000    0.0000 C   0  0  0  0  0  0  0  0  0  0  0  0
    0.0000    0.0000    0.0000 N   0  0  0  0  0  0  0  0  0  0  0  0
    0.0000    0.0000    0.0000 C   0  0  0  0  0  0  0  0  0  0  0  0
    0.0000    0.0000    0.0000 N   0  0  0  0  0  0  0  0  0  0  0  0
    0.0000    0.0000    0.0000 C   0  0  0  0  0  0  0  0  0  0  0  0
  1  2  1  0
  2  3  1  0
  3  4  2  0
  4  5  1  0
  5  6  2  0
  6  7  1  0
  7  8  2  0
  8  9  1  0
  5 10  1  0
 10 11  2  0
 11 12  1  0
 12 13  1  0
 13 14  1  0
 13 15  1  0
 12 16  1  0
 16 17  2  0
 17 18  1  0
 18 19  2  0
 19 20  1  0
 20 21  1  0
 20 22  2  0
  8  3  1  0
 22 10  1  0
 22 16  1  0
M  END
>  <pIC50>  (414) 
5.82

>  <ChEMBL_ID>  (414) 
CHEMBL1242112

>  <document_journal>  (414) 
Nat. Chem. Biol.

>  <bao_endpoint>  (414) 
BAO_0000190

>  <potential_duplicate>  (414) 
False

>  <uo_units>  (414) 
UO_0000065

>  <canonical_smiles>  (414) 
COc1cc(ccc1O)c2nn(C(C)C)c3ncnc(N)c23

>  <parent_molecule_chembl_id>  (414) 
CHEMBL1242112

>  <assay_type>  (414) 
B

>  <src_id>  (414) 
1

>  <ligand_efficiency>  (414) 
{u'le': u'0.36', u'bei': u'19.46', u'sei': u'5.88', u'lle': u'3.51'}

>  <standard_flag>  (414) 
True

>  <molecule_chembl_id>  (414) 
CHEMBL1242112

>  <target_organism>  (414) 
Homo sapiens

>  <standard_units>  (414) 
nM

>  <record_id>  (414) 
953183

>  <document_chembl_id>  (414) 
CHEMBL1240340

>  <bao_format>  (414) 
BAO_0000357

>  <data_validity_description>  (414) 
None

>  <activity_id>  (414) 
3443154

>  <standard_type>  (414) 
IC50

>  <target_chembl_id>  (414) 
CHEMBL1862

>  <data_validity_comment>  (414) 
None

>  <published_value>  (414) 
1.5

>  <document_year>  (414) 
2008

>  <target_pref_name>  (414) 
Tyrosine-protein kinase ABL

>  <assay_chembl_id>  (414) 
CHEMBL1243972

>  <standard_relation>  (414) 
=

>  <assay_description>  (414) 
Inhibition of recombinant c-Abl by radioactive phosphotransfer assay in presence of 10 uM ATP

>  <published_relation>  (414) 
=

>  <standard_value>  (414) 
1500

>  <qudt_units>  (414) 
http://www.openphacts.org/units/Nanomolar

>  <target_tax_id>  (414) 
9606

>  <bao_label>  (414) 
single protein format

>  <published_units>  (414) 
uM

>  <pchembl_value>  (414) 
5.82

>  <published_type>  (414) 
IC50

>  <activity_comment>  (414) 
None

$$$$

     RDKit          

 19 21  0  0  0  0  0  0  0  0999 V2000
    0.0000    0.0000    0.0000 C   0  0  0  0  0  0  0  0  0  0  0  0
    0.0000    0.0000    0.0000 O   0  0  0  0  0  0  0  0  0  0  0  0
    0.0000    0.0000    0.0000 C   0  0  0  0  0  0  0  0  0  0  0  0
    0.0000    0.0000    0.0000 C   0  0  0  0  0  0  0  0  0  0  0  0
    0.0000    0.0000    0.0000 C   0  0  0  0  0  0  0  0  0  0  0  0
    0.0000    0.0000    0.0000 C   0  0  0  0  0  0  0  0  0  0  0  0
    0.0000    0.0000    0.0000 C   0  0  0  0  0  0  0  0  0  0  0  0
    0.0000    0.0000    0.0000 C   0  0  0  0  0  0  0  0  0  0  0  0
    0.0000    0.0000    0.0000 O   0  0  0  0  0  0  0  0  0  0  0  0
    0.0000    0.0000    0.0000 C   0  0  0  0  0  0  0  0  0  0  0  0
    0.0000    0.0000    0.0000 N   0  0  0  0  0  0  0  0  0  0  0  0
    0.0000    0.0000    0.0000 N   0  0  0  0  0  0  0  0  0  0  0  0
    0.0000    0.0000    0.0000 C   0  0  0  0  0  0  0  0  0  0  0  0
    0.0000    0.0000    0.0000 N   0  0  0  0  0  0  0  0  0  0  0  0
    0.0000    0.0000    0.0000 C   0  0  0  0  0  0  0  0  0  0  0  0
    0.0000    0.0000    0.0000 N   0  0  0  0  0  0  0  0  0  0  0  0
    0.0000    0.0000    0.0000 C   0  0  0  0  0  0  0  0  0  0  0  0
    0.0000    0.0000    0.0000 N   0  0  0  0  0  0  0  0  0  0  0  0
    0.0000    0.0000    0.0000 C   0  0  0  0  0  0  0  0  0  0  0  0
  1  2  1  0
  2  3  1  0
  3  4  2  0
  4  5  1  0
  5  6  2  0
  6  7  1  0
  7  8  2  0
  8  9  1  0
  6 10  1  0
 10 11  2  0
 11 12  1  0
 12 13  1  0
 13 14  2  0
 14 15  1  0
 15 16  2  0
 16 17  1  0
 17 18  1  0
 17 19  2  0
  8  3  1  0
 19 10  1  0
 19 13  1  0
M  END
>  <pIC50>  (415) 
6.11

>  <ChEMBL_ID>  (415) 
CHEMBL1241300

>  <document_journal>  (415) 
Nat. Chem. Biol.

>  <bao_endpoint>  (415) 
BAO_0000190

>  <potential_duplicate>  (415) 
False

>  <uo_units>  (415) 
UO_0000065

>  <canonical_smiles>  (415) 
COc1ccc(cc1O)c2n[nH]c3ncnc(N)c23

>  <parent_molecule_chembl_id>  (415) 
CHEMBL1241300

>  <assay_type>  (415) 
B

>  <src_id>  (415) 
1

>  <ligand_efficiency>  (415) 
{u'le': u'0.44', u'bei': u'23.73', u'sei': u'5.55', u'lle': u'4.73'}

>  <standard_flag>  (415) 
True

>  <molecule_chembl_id>  (415) 
CHEMBL1241300

>  <target_organism>  (415) 
Homo sapiens

>  <standard_units>  (415) 
nM

>  <record_id>  (415) 
951992

>  <document_chembl_id>  (415) 
CHEMBL1240340

>  <bao_format>  (415) 
BAO_0000357

>  <data_validity_description>  (415) 
None

>  <activity_id>  (415) 
3443168

>  <standard_type>  (415) 
IC50

>  <target_chembl_id>  (415) 
CHEMBL1862

>  <data_validity_comment>  (415) 
None

>  <published_value>  (415) 
0.784

>  <document_year>  (415) 
2008

>  <target_pref_name>  (415) 
Tyrosine-protein kinase ABL

>  <assay_chembl_id>  (415) 
CHEMBL1243972

>  <standard_relation>  (415) 
=

>  <assay_description>  (415) 
Inhibition of recombinant c-Abl by radioactive phosphotransfer assay in presence of 10 uM ATP

>  <published_relation>  (415) 
=

>  <standard_value>  (415) 
784

>  <qudt_units>  (415) 
http://www.openphacts.org/units/Nanomolar

>  <target_tax_id>  (415) 
9606

>  <bao_label>  (415) 
single protein format

>  <published_units>  (415) 
uM

>  <pchembl_value>  (415) 
6.11

>  <published_type>  (415) 
IC50

>  <activity_comment>  (415) 
None

$$$$

     RDKit          

 20 22  0  0  0  0  0  0  0  0999 V2000
    0.0000    0.0000    0.0000 C   0  0  0  0  0  0  0  0  0  0  0  0
    0.0000    0.0000    0.0000 O   0  0  0  0  0  0  0  0  0  0  0  0
    0.0000    0.0000    0.0000 C   0  0  0  0  0  0  0  0  0  0  0  0
    0.0000    0.0000    0.0000 C   0  0  0  0  0  0  0  0  0  0  0  0
    0.0000    0.0000    0.0000 C   0  0  0  0  0  0  0  0  0  0  0  0
    0.0000    0.0000    0.0000 C   0  0  0  0  0  0  0  0  0  0  0  0
    0.0000    0.0000    0.0000 C   0  0  0  0  0  0  0  0  0  0  0  0
    0.0000    0.0000    0.0000 C   0  0  0  0  0  0  0  0  0  0  0  0
    0.0000    0.0000    0.0000 O   0  0  0  0  0  0  0  0  0  0  0  0
    0.0000    0.0000    0.0000 C   0  0  0  0  0  0  0  0  0  0  0  0
    0.0000    0.0000    0.0000 N   0  0  0  0  0  0  0  0  0  0  0  0
    0.0000    0.0000    0.0000 N   0  0  0  0  0  0  0  0  0  0  0  0
    0.0000    0.0000    0.0000 C   0  0  0  0  0  0  0  0  0  0  0  0
    0.0000    0.0000    0.0000 C   0  0  0  0  0  0  0  0  0  0  0  0
    0.0000    0.0000    0.0000 N   0  0  0  0  0  0  0  0  0  0  0  0
    0.0000    0.0000    0.0000 C   0  0  0  0  0  0  0  0  0  0  0  0
    0.0000    0.0000    0.0000 N   0  0  0  0  0  0  0  0  0  0  0  0
    0.0000    0.0000    0.0000 C   0  0  0  0  0  0  0  0  0  0  0  0
    0.0000    0.0000    0.0000 N   0  0  0  0  0  0  0  0  0  0  0  0
    0.0000    0.0000    0.0000 C   0  0  0  0  0  0  0  0  0  0  0  0
  1  2  1  0
  2  3  1  0
  3  4  2  0
  4  5  1  0
  5  6  2  0
  6  7  1  0
  7  8  2  0
  8  9  1  0
  6 10  1  0
 10 11  2  0
 11 12  1  0
 12 13  1  0
 12 14  1  0
 14 15  2  0
 15 16  1  0
 16 17  2  0
 17 18  1  0
 18 19  1  0
 18 20  2  0
  8  3  1  0
 20 10  1  0
 20 14  1  0
M  END
>  <pIC50>  (416) 
6.28

>  <ChEMBL_ID>  (416) 
CHEMBL1241301

>  <document_journal>  (416) 
Nat. Chem. Biol.

>  <bao_endpoint>  (416) 
BAO_0000190

>  <potential_duplicate>  (416) 
False

>  <uo_units>  (416) 
UO_0000065

>  <canonical_smiles>  (416) 
COc1ccc(cc1O)c2nn(C)c3ncnc(N)c23

>  <parent_molecule_chembl_id>  (416) 
CHEMBL1241301

>  <assay_type>  (416) 
B

>  <src_id>  (416) 
1

>  <ligand_efficiency>  (416) 
{u'le': u'0.43', u'bei': u'23.13', u'sei': u'6.33', u'lle': u'4.7'}

>  <standard_flag>  (416) 
True

>  <molecule_chembl_id>  (416) 
CHEMBL1241301

>  <target_organism>  (416) 
Homo sapiens

>  <standard_units>  (416) 
nM

>  <record_id>  (416) 
951993

>  <document_chembl_id>  (416) 
CHEMBL1240340

>  <bao_format>  (416) 
BAO_0000357

>  <data_validity_description>  (416) 
None

>  <activity_id>  (416) 
3443182

>  <standard_type>  (416) 
IC50

>  <target_chembl_id>  (416) 
CHEMBL1862

>  <data_validity_comment>  (416) 
None

>  <published_value>  (416) 
0.53

>  <document_year>  (416) 
2008

>  <target_pref_name>  (416) 
Tyrosine-protein kinase ABL

>  <assay_chembl_id>  (416) 
CHEMBL1243972

>  <standard_relation>  (416) 
=

>  <assay_description>  (416) 
Inhibition of recombinant c-Abl by radioactive phosphotransfer assay in presence of 10 uM ATP

>  <published_relation>  (416) 
=

>  <standard_value>  (416) 
530

>  <qudt_units>  (416) 
http://www.openphacts.org/units/Nanomolar

>  <target_tax_id>  (416) 
9606

>  <bao_label>  (416) 
single protein format

>  <published_units>  (416) 
uM

>  <pchembl_value>  (416) 
6.28

>  <published_type>  (416) 
IC50

>  <activity_comment>  (416) 
None

$$$$

     RDKit          

 21 23  0  0  0  0  0  0  0  0999 V2000
    0.0000    0.0000    0.0000 C   0  0  0  0  0  0  0  0  0  0  0  0
    0.0000    0.0000    0.0000 C   0  0  0  0  0  0  0  0  0  0  0  0
    0.0000    0.0000    0.0000 N   0  0  0  0  0  0  0  0  0  0  0  0
    0.0000    0.0000    0.0000 N   0  0  0  0  0  0  0  0  0  0  0  0
    0.0000    0.0000    0.0000 C   0  0  0  0  0  0  0  0  0  0  0  0
    0.0000    0.0000    0.0000 C   0  0  0  0  0  0  0  0  0  0  0  0
    0.0000    0.0000    0.0000 C   0  0  0  0  0  0  0  0  0  0  0  0
    0.0000    0.0000    0.0000 C   0  0  0  0  0  0  0  0  0  0  0  0
    0.0000    0.0000    0.0000 C   0  0  0  0  0  0  0  0  0  0  0  0
    0.0000    0.0000    0.0000 O   0  0  0  0  0  0  0  0  0  0  0  0
    0.0000    0.0000    0.0000 C   0  0  0  0  0  0  0  0  0  0  0  0
    0.0000    0.0000    0.0000 C   0  0  0  0  0  0  0  0  0  0  0  0
    0.0000    0.0000    0.0000 O   0  0  0  0  0  0  0  0  0  0  0  0
    0.0000    0.0000    0.0000 C   0  0  0  0  0  0  0  0  0  0  0  0
    0.0000    0.0000    0.0000 C   0  0  0  0  0  0  0  0  0  0  0  0
    0.0000    0.0000    0.0000 C   0  0  0  0  0  0  0  0  0  0  0  0
    0.0000    0.0000    0.0000 N   0  0  0  0  0  0  0  0  0  0  0  0
    0.0000    0.0000    0.0000 N   0  0  0  0  0  0  0  0  0  0  0  0
    0.0000    0.0000    0.0000 C   0  0  0  0  0  0  0  0  0  0  0  0
    0.0000    0.0000    0.0000 N   0  0  0  0  0  0  0  0  0  0  0  0
    0.0000    0.0000    0.0000 C   0  0  0  0  0  0  0  0  0  0  0  0
  1  2  1  0
  2  3  1  0
  3  4  1  0
  4  5  2  0
  5  6  1  0
  6  7  2  0
  7  8  1  0
  8  9  2  0
  9 10  1  0
 10 11  1  0
  9 12  1  0
 12 13  1  0
 12 14  2  0
  5 15  1  0
 15 16  2  0
 16 17  1  0
 16 18  1  0
 18 19  2  0
 19 20  1  0
 20 21  2  0
 21  3  1  0
 14  6  1  0
 21 15  1  0
M  END
>  <pIC50>  (417) 
6.75

>  <ChEMBL_ID>  (417) 
CHEMBL1242113

>  <document_journal>  (417) 
Nat. Chem. Biol.

>  <bao_endpoint>  (417) 
BAO_0000190

>  <potential_duplicate>  (417) 
False

>  <uo_units>  (417) 
UO_0000065

>  <canonical_smiles>  (417) 
CCn1nc(c2ccc(OC)c(O)c2)c3c(N)ncnc13

>  <parent_molecule_chembl_id>  (417) 
CHEMBL1242113

>  <assay_type>  (417) 
B

>  <src_id>  (417) 
1

>  <ligand_efficiency>  (417) 
{u'le': u'0.44', u'bei': u'23.67', u'sei': u'6.81', u'lle': u'4.82'}

>  <standard_flag>  (417) 
True

>  <molecule_chembl_id>  (417) 
CHEMBL1242113

>  <target_organism>  (417) 
Homo sapiens

>  <standard_units>  (417) 
nM

>  <record_id>  (417) 
953184

>  <document_chembl_id>  (417) 
CHEMBL1240340

>  <bao_format>  (417) 
BAO_0000357

>  <data_validity_description>  (417) 
None

>  <activity_id>  (417) 
3443196

>  <standard_type>  (417) 
IC50

>  <target_chembl_id>  (417) 
CHEMBL1862

>  <data_validity_comment>  (417) 
None

>  <published_value>  (417) 
0.177

>  <document_year>  (417) 
2008

>  <target_pref_name>  (417) 
Tyrosine-protein kinase ABL

>  <assay_chembl_id>  (417) 
CHEMBL1243972

>  <standard_relation>  (417) 
=

>  <assay_description>  (417) 
Inhibition of recombinant c-Abl by radioactive phosphotransfer assay in presence of 10 uM ATP

>  <published_relation>  (417) 
=

>  <standard_value>  (417) 
177

>  <qudt_units>  (417) 
http://www.openphacts.org/units/Nanomolar

>  <target_tax_id>  (417) 
9606

>  <bao_label>  (417) 
single protein format

>  <published_units>  (417) 
uM

>  <pchembl_value>  (417) 
6.75

>  <published_type>  (417) 
IC50

>  <activity_comment>  (417) 
None

$$$$

     RDKit          

 22 24  0  0  0  0  0  0  0  0999 V2000
    0.0000    0.0000    0.0000 C   0  0  0  0  0  0  0  0  0  0  0  0
    0.0000    0.0000    0.0000 O   0  0  0  0  0  0  0  0  0  0  0  0
    0.0000    0.0000    0.0000 C   0  0  0  0  0  0  0  0  0  0  0  0
    0.0000    0.0000    0.0000 C   0  0  0  0  0  0  0  0  0  0  0  0
    0.0000    0.0000    0.0000 C   0  0  0  0  0  0  0  0  0  0  0  0
    0.0000    0.0000    0.0000 C   0  0  0  0  0  0  0  0  0  0  0  0
    0.0000    0.0000    0.0000 C   0  0  0  0  0  0  0  0  0  0  0  0
    0.0000    0.0000    0.0000 C   0  0  0  0  0  0  0  0  0  0  0  0
    0.0000    0.0000    0.0000 O   0  0  0  0  0  0  0  0  0  0  0  0
    0.0000    0.0000    0.0000 C   0  0  0  0  0  0  0  0  0  0  0  0
    0.0000    0.0000    0.0000 N   0  0  0  0  0  0  0  0  0  0  0  0
    0.0000    0.0000    0.0000 N   0  0  0  0  0  0  0  0  0  0  0  0
    0.0000    0.0000    0.0000 C   0  0  0  0  0  0  0  0  0  0  0  0
    0.0000    0.0000    0.0000 C   0  0  0  0  0  0  0  0  0  0  0  0
    0.0000    0.0000    0.0000 C   0  0  0  0  0  0  0  0  0  0  0  0
    0.0000    0.0000    0.0000 C   0  0  0  0  0  0  0  0  0  0  0  0
    0.0000    0.0000    0.0000 N   0  0  0  0  0  0  0  0  0  0  0  0
    0.0000    0.0000    0.0000 C   0  0  0  0  0  0  0  0  0  0  0  0
    0.0000    0.0000    0.0000 N   0  0  0  0  0  0  0  0  0  0  0  0
    0.0000    0.0000    0.0000 C   0  0  0  0  0  0  0  0  0  0  0  0
    0.0000    0.0000    0.0000 N   0  0  0  0  0  0  0  0  0  0  0  0
    0.0000    0.0000    0.0000 C   0  0  0  0  0  0  0  0  0  0  0  0
  1  2  1  0
  2  3  1  0
  3  4  2  0
  4  5  1  0
  5  6  2  0
  6  7  1  0
  7  8  2  0
  8  9  1  0
  6 10  1  0
 10 11  2  0
 11 12  1  0
 12 13  1  0
 13 14  1  0
 13 15  1  0
 12 16  1  0
 16 17  2  0
 17 18  1  0
 18 19  2  0
 19 20  1  0
 20 21  1  0
 20 22  2  0
  8  3  1  0
 22 10  1  0
 22 16  1  0
M  END
>  <pIC50>  (418) 
7.05

>  <ChEMBL_ID>  (418) 
CHEMBL1242114

>  <document_journal>  (418) 
Nat. Chem. Biol.

>  <bao_endpoint>  (418) 
BAO_0000190

>  <potential_duplicate>  (418) 
False

>  <uo_units>  (418) 
UO_0000065

>  <canonical_smiles>  (418) 
COc1ccc(cc1O)c2nn(C(C)C)c3ncnc(N)c23

>  <parent_molecule_chembl_id>  (418) 
CHEMBL1242114

>  <assay_type>  (418) 
B

>  <src_id>  (418) 
1

>  <ligand_efficiency>  (418) 
{u'le': u'0.44', u'bei': u'23.54', u'sei': u'7.11', u'lle': u'4.74'}

>  <standard_flag>  (418) 
True

>  <molecule_chembl_id>  (418) 
CHEMBL1242114

>  <target_organism>  (418) 
Homo sapiens

>  <standard_units>  (418) 
nM

>  <record_id>  (418) 
953185

>  <document_chembl_id>  (418) 
CHEMBL1240340

>  <bao_format>  (418) 
BAO_0000357

>  <data_validity_description>  (418) 
None

>  <activity_id>  (418) 
3443210

>  <standard_type>  (418) 
IC50

>  <target_chembl_id>  (418) 
CHEMBL1862

>  <data_validity_comment>  (418) 
None

>  <published_value>  (418) 
0.09

>  <document_year>  (418) 
2008

>  <target_pref_name>  (418) 
Tyrosine-protein kinase ABL

>  <assay_chembl_id>  (418) 
CHEMBL1243972

>  <standard_relation>  (418) 
=

>  <assay_description>  (418) 
Inhibition of recombinant c-Abl by radioactive phosphotransfer assay in presence of 10 uM ATP

>  <published_relation>  (418) 
=

>  <standard_value>  (418) 
90

>  <qudt_units>  (418) 
http://www.openphacts.org/units/Nanomolar

>  <target_tax_id>  (418) 
9606

>  <bao_label>  (418) 
single protein format

>  <published_units>  (418) 
uM

>  <pchembl_value>  (418) 
7.05

>  <published_type>  (418) 
IC50

>  <activity_comment>  (418) 
None

$$$$

     RDKit          

 24 27  0  0  0  0  0  0  0  0999 V2000
    0.0000    0.0000    0.0000 C   0  0  0  0  0  0  0  0  0  0  0  0
    0.0000    0.0000    0.0000 O   0  0  0  0  0  0  0  0  0  0  0  0
    0.0000    0.0000    0.0000 C   0  0  0  0  0  0  0  0  0  0  0  0
    0.0000    0.0000    0.0000 C   0  0  0  0  0  0  0  0  0  0  0  0
    0.0000    0.0000    0.0000 C   0  0  0  0  0  0  0  0  0  0  0  0
    0.0000    0.0000    0.0000 C   0  0  0  0  0  0  0  0  0  0  0  0
    0.0000    0.0000    0.0000 C   0  0  0  0  0  0  0  0  0  0  0  0
    0.0000    0.0000    0.0000 C   0  0  0  0  0  0  0  0  0  0  0  0
    0.0000    0.0000    0.0000 O   0  0  0  0  0  0  0  0  0  0  0  0
    0.0000    0.0000    0.0000 C   0  0  0  0  0  0  0  0  0  0  0  0
    0.0000    0.0000    0.0000 N   0  0  0  0  0  0  0  0  0  0  0  0
    0.0000    0.0000    0.0000 N   0  0  0  0  0  0  0  0  0  0  0  0
    0.0000    0.0000    0.0000 C   0  0  0  0  0  0  0  0  0  0  0  0
    0.0000    0.0000    0.0000 C   0  0  0  0  0  0  0  0  0  0  0  0
    0.0000    0.0000    0.0000 C   0  0  0  0  0  0  0  0  0  0  0  0
    0.0000    0.0000    0.0000 C   0  0  0  0  0  0  0  0  0  0  0  0
    0.0000    0.0000    0.0000 C   0  0  0  0  0  0  0  0  0  0  0  0
    0.0000    0.0000    0.0000 C   0  0  0  0  0  0  0  0  0  0  0  0
    0.0000    0.0000    0.0000 N   0  0  0  0  0  0  0  0  0  0  0  0
    0.0000    0.0000    0.0000 C   0  0  0  0  0  0  0  0  0  0  0  0
    0.0000    0.0000    0.0000 N   0  0  0  0  0  0  0  0  0  0  0  0
    0.0000    0.0000    0.0000 C   0  0  0  0  0  0  0  0  0  0  0  0
    0.0000    0.0000    0.0000 N   0  0  0  0  0  0  0  0  0  0  0  0
    0.0000    0.0000    0.0000 C   0  0  0  0  0  0  0  0  0  0  0  0
  1  2  1  0
  2  3  1  0
  3  4  2  0
  4  5  1  0
  5  6  2  0
  6  7  1  0
  7  8  2  0
  8  9  1  0
  6 10  1  0
 10 11  2  0
 11 12  1  0
 12 13  1  0
 13 14  1  0
 14 15  1  0
 15 16  1  0
 16 17  1  0
 12 18  1  0
 18 19  2  0
 19 20  1  0
 20 21  2  0
 21 22  1  0
 22 23  1  0
 22 24  2  0
  8  3  1  0
 24 10  1  0
 17 13  1  0
 24 18  1  0
M  END
>  <pIC50>  (419) 
7.25

>  <ChEMBL_ID>  (419) 
CHEMBL1242201

>  <document_journal>  (419) 
Nat. Chem. Biol.

>  <bao_endpoint>  (419) 
BAO_0000190

>  <potential_duplicate>  (419) 
False

>  <uo_units>  (419) 
UO_0000065

>  <canonical_smiles>  (419) 
COc1ccc(cc1O)c2nn(C3CCCC3)c4ncnc(N)c24

>  <parent_molecule_chembl_id>  (419) 
CHEMBL1242201

>  <assay_type>  (419) 
B

>  <src_id>  (419) 
1

>  <ligand_efficiency>  (419) 
{u'le': u'0.41', u'bei': u'22.29', u'sei': u'7.32', u'lle': u'4.27'}

>  <standard_flag>  (419) 
True

>  <molecule_chembl_id>  (419) 
CHEMBL1242201

>  <target_organism>  (419) 
Homo sapiens

>  <standard_units>  (419) 
nM

>  <record_id>  (419) 
953315

>  <document_chembl_id>  (419) 
CHEMBL1240340

>  <bao_format>  (419) 
BAO_0000357

>  <data_validity_description>  (419) 
None

>  <activity_id>  (419) 
3443224

>  <standard_type>  (419) 
IC50

>  <target_chembl_id>  (419) 
CHEMBL1862

>  <data_validity_comment>  (419) 
None

>  <published_value>  (419) 
0.056

>  <document_year>  (419) 
2008

>  <target_pref_name>  (419) 
Tyrosine-protein kinase ABL

>  <assay_chembl_id>  (419) 
CHEMBL1243972

>  <standard_relation>  (419) 
=

>  <assay_description>  (419) 
Inhibition of recombinant c-Abl by radioactive phosphotransfer assay in presence of 10 uM ATP

>  <published_relation>  (419) 
=

>  <standard_value>  (419) 
56

>  <qudt_units>  (419) 
http://www.openphacts.org/units/Nanomolar

>  <target_tax_id>  (419) 
9606

>  <bao_label>  (419) 
single protein format

>  <published_units>  (419) 
uM

>  <pchembl_value>  (419) 
7.25

>  <published_type>  (419) 
IC50

>  <activity_comment>  (419) 
None

$$$$

     RDKit          

 25 28  0  0  0  0  0  0  0  0999 V2000
    0.0000    0.0000    0.0000 C   0  0  0  0  0  0  0  0  0  0  0  0
    0.0000    0.0000    0.0000 O   0  0  0  0  0  0  0  0  0  0  0  0
    0.0000    0.0000    0.0000 C   0  0  0  0  0  0  0  0  0  0  0  0
    0.0000    0.0000    0.0000 C   0  0  0  0  0  0  0  0  0  0  0  0
    0.0000    0.0000    0.0000 C   0  0  0  0  0  0  0  0  0  0  0  0
    0.0000    0.0000    0.0000 C   0  0  0  0  0  0  0  0  0  0  0  0
    0.0000    0.0000    0.0000 C   0  0  0  0  0  0  0  0  0  0  0  0
    0.0000    0.0000    0.0000 C   0  0  0  0  0  0  0  0  0  0  0  0
    0.0000    0.0000    0.0000 O   0  0  0  0  0  0  0  0  0  0  0  0
    0.0000    0.0000    0.0000 C   0  0  0  0  0  0  0  0  0  0  0  0
    0.0000    0.0000    0.0000 N   0  0  0  0  0  0  0  0  0  0  0  0
    0.0000    0.0000    0.0000 N   0  0  0  0  0  0  0  0  0  0  0  0
    0.0000    0.0000    0.0000 C   0  0  0  0  0  0  0  0  0  0  0  0
    0.0000    0.0000    0.0000 C   0  0  0  0  0  0  0  0  0  0  0  0
    0.0000    0.0000    0.0000 C   0  0  0  0  0  0  0  0  0  0  0  0
    0.0000    0.0000    0.0000 C   0  0  0  0  0  0  0  0  0  0  0  0
    0.0000    0.0000    0.0000 C   0  0  0  0  0  0  0  0  0  0  0  0
    0.0000    0.0000    0.0000 C   0  0  0  0  0  0  0  0  0  0  0  0
    0.0000    0.0000    0.0000 C   0  0  0  0  0  0  0  0  0  0  0  0
    0.0000    0.0000    0.0000 N   0  0  0  0  0  0  0  0  0  0  0  0
    0.0000    0.0000    0.0000 C   0  0  0  0  0  0  0  0  0  0  0  0
    0.0000    0.0000    0.0000 N   0  0  0  0  0  0  0  0  0  0  0  0
    0.0000    0.0000    0.0000 C   0  0  0  0  0  0  0  0  0  0  0  0
    0.0000    0.0000    0.0000 N   0  0  0  0  0  0  0  0  0  0  0  0
    0.0000    0.0000    0.0000 C   0  0  0  0  0  0  0  0  0  0  0  0
  1  2  1  0
  2  3  1  0
  3  4  2  0
  4  5  1  0
  5  6  2  0
  6  7  1  0
  7  8  2  0
  8  9  1  0
  6 10  1  0
 10 11  2  0
 11 12  1  0
 12 13  1  0
 13 14  1  0
 14 15  1  0
 15 16  1  0
 16 17  1  0
 16 18  1  0
 12 19  1  0
 19 20  2  0
 20 21  1  0
 21 22  2  0
 22 23  1  0
 23 24  1  0
 23 25  2  0
  8  3  1  0
 25 10  1  0
 18 13  1  0
 25 19  1  0
M  END
>  <pIC50>  (420) 
7.17

>  <ChEMBL_ID>  (420) 
CHEMBL1242202

>  <document_journal>  (420) 
Nat. Chem. Biol.

>  <bao_endpoint>  (420) 
BAO_0000190

>  <potential_duplicate>  (420) 
False

>  <uo_units>  (420) 
UO_0000065

>  <canonical_smiles>  (420) 
COc1ccc(cc1O)c2nn(C3CCC(C)C3)c4ncnc(N)c24

>  <parent_molecule_chembl_id>  (420) 
CHEMBL1242202

>  <assay_type>  (420) 
B

>  <src_id>  (420) 
1

>  <ligand_efficiency>  (420) 
{u'le': u'0.39', u'bei': u'21.12', u'sei': u'7.23', u'lle': u'3.93'}

>  <standard_flag>  (420) 
True

>  <molecule_chembl_id>  (420) 
CHEMBL1242202

>  <target_organism>  (420) 
Homo sapiens

>  <standard_units>  (420) 
nM

>  <record_id>  (420) 
953316

>  <document_chembl_id>  (420) 
CHEMBL1240340

>  <bao_format>  (420) 
BAO_0000357

>  <data_validity_description>  (420) 
None

>  <activity_id>  (420) 
3443238

>  <standard_type>  (420) 
IC50

>  <target_chembl_id>  (420) 
CHEMBL1862

>  <data_validity_comment>  (420) 
None

>  <published_value>  (420) 
0.068

>  <document_year>  (420) 
2008

>  <target_pref_name>  (420) 
Tyrosine-protein kinase ABL

>  <assay_chembl_id>  (420) 
CHEMBL1243972

>  <standard_relation>  (420) 
=

>  <assay_description>  (420) 
Inhibition of recombinant c-Abl by radioactive phosphotransfer assay in presence of 10 uM ATP

>  <published_relation>  (420) 
=

>  <standard_value>  (420) 
68

>  <qudt_units>  (420) 
http://www.openphacts.org/units/Nanomolar

>  <target_tax_id>  (420) 
9606

>  <bao_label>  (420) 
single protein format

>  <published_units>  (420) 
uM

>  <pchembl_value>  (420) 
7.17

>  <published_type>  (420) 
IC50

>  <activity_comment>  (420) 
None

$$$$

     RDKit          

 23 26  0  0  0  0  0  0  0  0999 V2000
    0.0000    0.0000    0.0000 C   0  0  0  0  0  0  0  0  0  0  0  0
    0.0000    0.0000    0.0000 O   0  0  0  0  0  0  0  0  0  0  0  0
    0.0000    0.0000    0.0000 C   0  0  0  0  0  0  0  0  0  0  0  0
    0.0000    0.0000    0.0000 C   0  0  0  0  0  0  0  0  0  0  0  0
    0.0000    0.0000    0.0000 C   0  0  0  0  0  0  0  0  0  0  0  0
    0.0000    0.0000    0.0000 C   0  0  0  0  0  0  0  0  0  0  0  0
    0.0000    0.0000    0.0000 C   0  0  0  0  0  0  0  0  0  0  0  0
    0.0000    0.0000    0.0000 C   0  0  0  0  0  0  0  0  0  0  0  0
    0.0000    0.0000    0.0000 O   0  0  0  0  0  0  0  0  0  0  0  0
    0.0000    0.0000    0.0000 C   0  0  0  0  0  0  0  0  0  0  0  0
    0.0000    0.0000    0.0000 N   0  0  0  0  0  0  0  0  0  0  0  0
    0.0000    0.0000    0.0000 N   0  0  0  0  0  0  0  0  0  0  0  0
    0.0000    0.0000    0.0000 C   0  0  0  0  0  0  0  0  0  0  0  0
    0.0000    0.0000    0.0000 C   0  0  0  0  0  0  0  0  0  0  0  0
    0.0000    0.0000    0.0000 N   0  0  0  0  0  0  0  0  0  0  0  0
    0.0000    0.0000    0.0000 C   0  0  0  0  0  0  0  0  0  0  0  0
    0.0000    0.0000    0.0000 C   0  0  0  0  0  0  0  0  0  0  0  0
    0.0000    0.0000    0.0000 N   0  0  0  0  0  0  0  0  0  0  0  0
    0.0000    0.0000    0.0000 C   0  0  0  0  0  0  0  0  0  0  0  0
    0.0000    0.0000    0.0000 N   0  0  0  0  0  0  0  0  0  0  0  0
    0.0000    0.0000    0.0000 C   0  0  0  0  0  0  0  0  0  0  0  0
    0.0000    0.0000    0.0000 N   0  0  0  0  0  0  0  0  0  0  0  0
    0.0000    0.0000    0.0000 C   0  0  0  0  0  0  0  0  0  0  0  0
  1  2  1  0
  2  3  1  0
  3  4  2  0
  4  5  1  0
  5  6  2  0
  6  7  1  0
  7  8  2  0
  8  9  1  0
  6 10  1  0
 10 11  2  0
 11 12  1  0
 12 13  1  0
 13 14  1  0
 14 15  1  0
 15 16  1  0
 12 17  1  0
 17 18  2  0
 18 19  1  0
 19 20  2  0
 20 21  1  0
 21 22  1  0
 21 23  2  0
  8  3  1  0
 23 10  1  0
 16 13  1  0
 23 17  1  0
M  END
>  <pIC50>  (421) 
5.4

>  <ChEMBL_ID>  (421) 
CHEMBL1242203

>  <document_journal>  (421) 
Nat. Chem. Biol.

>  <bao_endpoint>  (421) 
BAO_0000190

>  <potential_duplicate>  (421) 
False

>  <uo_units>  (421) 
UO_0000065

>  <canonical_smiles>  (421) 
COc1ccc(cc1O)c2nn(C3CNC3)c4ncnc(N)c24

>  <parent_molecule_chembl_id>  (421) 
CHEMBL1242203

>  <assay_type>  (421) 
B

>  <src_id>  (421) 
1

>  <ligand_efficiency>  (421) 
{u'le': u'0.32', u'bei': u'17.28', u'sei': u'4.86', u'lle': u'4.37'}

>  <standard_flag>  (421) 
True

>  <molecule_chembl_id>  (421) 
CHEMBL1242203

>  <target_organism>  (421) 
Homo sapiens

>  <standard_units>  (421) 
nM

>  <record_id>  (421) 
953317

>  <document_chembl_id>  (421) 
CHEMBL1240340

>  <bao_format>  (421) 
BAO_0000357

>  <data_validity_description>  (421) 
None

>  <activity_id>  (421) 
3443252

>  <standard_type>  (421) 
IC50

>  <target_chembl_id>  (421) 
CHEMBL1862

>  <data_validity_comment>  (421) 
None

>  <published_value>  (421) 
4

>  <document_year>  (421) 
2008

>  <target_pref_name>  (421) 
Tyrosine-protein kinase ABL

>  <assay_chembl_id>  (421) 
CHEMBL1243972

>  <standard_relation>  (421) 
=

>  <assay_description>  (421) 
Inhibition of recombinant c-Abl by radioactive phosphotransfer assay in presence of 10 uM ATP

>  <published_relation>  (421) 
=

>  <standard_value>  (421) 
4000

>  <qudt_units>  (421) 
http://www.openphacts.org/units/Nanomolar

>  <target_tax_id>  (421) 
9606

>  <bao_label>  (421) 
single protein format

>  <published_units>  (421) 
uM

>  <pchembl_value>  (421) 
5.4

>  <published_type>  (421) 
IC50

>  <activity_comment>  (421) 
None

$$$$

     RDKit          

 24 27  0  0  0  0  0  0  0  0999 V2000
    0.0000    0.0000    0.0000 C   0  0  0  0  0  0  0  0  0  0  0  0
    0.0000    0.0000    0.0000 O   0  0  0  0  0  0  0  0  0  0  0  0
    0.0000    0.0000    0.0000 C   0  0  0  0  0  0  0  0  0  0  0  0
    0.0000    0.0000    0.0000 C   0  0  0  0  0  0  0  0  0  0  0  0
    0.0000    0.0000    0.0000 C   0  0  0  0  0  0  0  0  0  0  0  0
    0.0000    0.0000    0.0000 C   0  0  0  0  0  0  0  0  0  0  0  0
    0.0000    0.0000    0.0000 C   0  0  0  0  0  0  0  0  0  0  0  0
    0.0000    0.0000    0.0000 C   0  0  0  0  0  0  0  0  0  0  0  0
    0.0000    0.0000    0.0000 O   0  0  0  0  0  0  0  0  0  0  0  0
    0.0000    0.0000    0.0000 C   0  0  0  0  0  0  0  0  0  0  0  0
    0.0000    0.0000    0.0000 N   0  0  0  0  0  0  0  0  0  0  0  0
    0.0000    0.0000    0.0000 N   0  0  0  0  0  0  0  0  0  0  0  0
    0.0000    0.0000    0.0000 C   0  0  0  0  0  0  0  0  0  0  0  0
    0.0000    0.0000    0.0000 C   0  0  0  0  0  0  0  0  0  0  0  0
    0.0000    0.0000    0.0000 C   0  0  0  0  0  0  0  0  0  0  0  0
    0.0000    0.0000    0.0000 N   0  0  0  0  0  0  0  0  0  0  0  0
    0.0000    0.0000    0.0000 C   0  0  0  0  0  0  0  0  0  0  0  0
    0.0000    0.0000    0.0000 C   0  0  0  0  0  0  0  0  0  0  0  0
    0.0000    0.0000    0.0000 N   0  0  0  0  0  0  0  0  0  0  0  0
    0.0000    0.0000    0.0000 C   0  0  0  0  0  0  0  0  0  0  0  0
    0.0000    0.0000    0.0000 N   0  0  0  0  0  0  0  0  0  0  0  0
    0.0000    0.0000    0.0000 C   0  0  0  0  0  0  0  0  0  0  0  0
    0.0000    0.0000    0.0000 N   0  0  0  0  0  0  0  0  0  0  0  0
    0.0000    0.0000    0.0000 C   0  0  0  0  0  0  0  0  0  0  0  0
  1  2  1  0
  2  3  1  0
  3  4  2  0
  4  5  1  0
  5  6  2  0
  6  7  1  0
  7  8  2  0
  8  9  1  0
  6 10  1  0
 10 11  2  0
 11 12  1  0
 12 13  1  0
 13 14  1  0
 14 15  1  0
 15 16  1  0
 16 17  1  0
 12 18  1  0
 18 19  2  0
 19 20  1  0
 20 21  2  0
 21 22  1  0
 22 23  1  0
 22 24  2  0
  8  3  1  0
 24 10  1  0
 17 13  1  0
 24 18  1  0
M  END
>  <pIC50>  (422) 
5.69

>  <ChEMBL_ID>  (422) 
CHEMBL1242288

>  <document_journal>  (422) 
Nat. Chem. Biol.

>  <bao_endpoint>  (422) 
BAO_0000190

>  <potential_duplicate>  (422) 
False

>  <uo_units>  (422) 
UO_0000065

>  <canonical_smiles>  (422) 
COc1ccc(cc1O)c2nn([C@@H]3CCNC3)c4ncnc(N)c24

>  <parent_molecule_chembl_id>  (422) 
CHEMBL1242288

>  <assay_type>  (422) 
B

>  <src_id>  (422) 
1

>  <ligand_efficiency>  (422) 
{u'le': u'0.32', u'bei': u'17.43', u'sei': u'5.12', u'lle': u'4.6'}

>  <standard_flag>  (422) 
True

>  <molecule_chembl_id>  (422) 
CHEMBL1242288

>  <target_organism>  (422) 
Homo sapiens

>  <standard_units>  (422) 
nM

>  <record_id>  (422) 
953447

>  <document_chembl_id>  (422) 
CHEMBL1240340

>  <bao_format>  (422) 
BAO_0000357

>  <data_validity_description>  (422) 
None

>  <activity_id>  (422) 
3443266

>  <standard_type>  (422) 
IC50

>  <target_chembl_id>  (422) 
CHEMBL1862

>  <data_validity_comment>  (422) 
None

>  <published_value>  (422) 
2.05

>  <document_year>  (422) 
2008

>  <target_pref_name>  (422) 
Tyrosine-protein kinase ABL

>  <assay_chembl_id>  (422) 
CHEMBL1243972

>  <standard_relation>  (422) 
=

>  <assay_description>  (422) 
Inhibition of recombinant c-Abl by radioactive phosphotransfer assay in presence of 10 uM ATP

>  <published_relation>  (422) 
=

>  <standard_value>  (422) 
2050

>  <qudt_units>  (422) 
http://www.openphacts.org/units/Nanomolar

>  <target_tax_id>  (422) 
9606

>  <bao_label>  (422) 
single protein format

>  <published_units>  (422) 
uM

>  <pchembl_value>  (422) 
5.69

>  <published_type>  (422) 
IC50

>  <activity_comment>  (422) 
None

$$$$

     RDKit          

 25 28  0  0  0  0  0  0  0  0999 V2000
    0.0000    0.0000    0.0000 C   0  0  0  0  0  0  0  0  0  0  0  0
    0.0000    0.0000    0.0000 C   0  0  0  0  0  0  0  0  0  0  0  0
    0.0000    0.0000    0.0000 O   0  0  0  0  0  0  0  0  0  0  0  0
    0.0000    0.0000    0.0000 C   0  0  0  0  0  0  0  0  0  0  0  0
    0.0000    0.0000    0.0000 C   0  0  0  0  0  0  0  0  0  0  0  0
    0.0000    0.0000    0.0000 C   0  0  0  0  0  0  0  0  0  0  0  0
    0.0000    0.0000    0.0000 C   0  0  0  0  0  0  0  0  0  0  0  0
    0.0000    0.0000    0.0000 C   0  0  0  0  0  0  0  0  0  0  0  0
    0.0000    0.0000    0.0000 C   0  0  0  0  0  0  0  0  0  0  0  0
    0.0000    0.0000    0.0000 O   0  0  0  0  0  0  0  0  0  0  0  0
    0.0000    0.0000    0.0000 C   0  0  0  0  0  0  0  0  0  0  0  0
    0.0000    0.0000    0.0000 N   0  0  0  0  0  0  0  0  0  0  0  0
    0.0000    0.0000    0.0000 N   0  0  0  0  0  0  0  0  0  0  0  0
    0.0000    0.0000    0.0000 C   0  0  0  0  0  0  0  0  0  0  0  0
    0.0000    0.0000    0.0000 C   0  0  0  0  0  0  0  0  0  0  0  0
    0.0000    0.0000    0.0000 C   0  0  0  0  0  0  0  0  0  0  0  0
    0.0000    0.0000    0.0000 C   0  0  0  0  0  0  0  0  0  0  0  0
    0.0000    0.0000    0.0000 C   0  0  0  0  0  0  0  0  0  0  0  0
    0.0000    0.0000    0.0000 C   0  0  0  0  0  0  0  0  0  0  0  0
    0.0000    0.0000    0.0000 N   0  0  0  0  0  0  0  0  0  0  0  0
    0.0000    0.0000    0.0000 C   0  0  0  0  0  0  0  0  0  0  0  0
    0.0000    0.0000    0.0000 N   0  0  0  0  0  0  0  0  0  0  0  0
    0.0000    0.0000    0.0000 C   0  0  0  0  0  0  0  0  0  0  0  0
    0.0000    0.0000    0.0000 N   0  0  0  0  0  0  0  0  0  0  0  0
    0.0000    0.0000    0.0000 C   0  0  0  0  0  0  0  0  0  0  0  0
  1  2  1  0
  2  3  1  0
  3  4  1  0
  4  5  2  0
  5  6  1  0
  6  7  2  0
  7  8  1  0
  8  9  2  0
  9 10  1  0
  7 11  1  0
 11 12  2  0
 12 13  1  0
 13 14  1  0
 14 15  1  0
 15 16  1  0
 16 17  1  0
 17 18  1  0
 13 19  1  0
 19 20  2  0
 20 21  1  0
 21 22  2  0
 22 23  1  0
 23 24  1  0
 23 25  2  0
  9  4  1  0
 25 11  1  0
 18 14  1  0
 25 19  1  0
M  END
>  <pIC50>  (423) 
6.22

>  <ChEMBL_ID>  (423) 
CHEMBL1242289

>  <document_journal>  (423) 
Nat. Chem. Biol.

>  <bao_endpoint>  (423) 
BAO_0000190

>  <potential_duplicate>  (423) 
False

>  <uo_units>  (423) 
UO_0000065

>  <canonical_smiles>  (423) 
CCOc1ccc(cc1O)c2nn(C3CCCC3)c4ncnc(N)c24

>  <parent_molecule_chembl_id>  (423) 
CHEMBL1242289

>  <assay_type>  (423) 
B

>  <src_id>  (423) 
1

>  <ligand_efficiency>  (423) 
{u'le': u'0.34', u'bei': u'18.32', u'sei': u'6.27', u'lle': u'2.89'}

>  <standard_flag>  (423) 
True

>  <molecule_chembl_id>  (423) 
CHEMBL1242289

>  <target_organism>  (423) 
Homo sapiens

>  <standard_units>  (423) 
nM

>  <record_id>  (423) 
953448

>  <document_chembl_id>  (423) 
CHEMBL1240340

>  <bao_format>  (423) 
BAO_0000357

>  <data_validity_description>  (423) 
None

>  <activity_id>  (423) 
3443280

>  <standard_type>  (423) 
IC50

>  <target_chembl_id>  (423) 
CHEMBL1862

>  <data_validity_comment>  (423) 
None

>  <published_value>  (423) 
0.608

>  <document_year>  (423) 
2008

>  <target_pref_name>  (423) 
Tyrosine-protein kinase ABL

>  <assay_chembl_id>  (423) 
CHEMBL1243972

>  <standard_relation>  (423) 
=

>  <assay_description>  (423) 
Inhibition of recombinant c-Abl by radioactive phosphotransfer assay in presence of 10 uM ATP

>  <published_relation>  (423) 
=

>  <standard_value>  (423) 
608

>  <qudt_units>  (423) 
http://www.openphacts.org/units/Nanomolar

>  <target_tax_id>  (423) 
9606

>  <bao_label>  (423) 
single protein format

>  <published_units>  (423) 
uM

>  <pchembl_value>  (423) 
6.22

>  <published_type>  (423) 
IC50

>  <activity_comment>  (423) 
None

$$$$

     RDKit          

 23 25  0  0  0  0  0  0  0  0999 V2000
    0.0000    0.0000    0.0000 C   0  0  0  0  0  0  0  0  0  0  0  0
    0.0000    0.0000    0.0000 O   0  0  0  0  0  0  0  0  0  0  0  0
    0.0000    0.0000    0.0000 C   0  0  0  0  0  0  0  0  0  0  0  0
    0.0000    0.0000    0.0000 C   0  0  0  0  0  0  0  0  0  0  0  0
    0.0000    0.0000    0.0000 C   0  0  0  0  0  0  0  0  0  0  0  0
    0.0000    0.0000    0.0000 C   0  0  0  0  0  0  0  0  0  0  0  0
    0.0000    0.0000    0.0000 C   0  0  0  0  0  0  0  0  0  0  0  0
    0.0000    0.0000    0.0000 C   0  0  0  0  0  0  0  0  0  0  0  0
    0.0000    0.0000    0.0000 O   0  0  0  0  0  0  0  0  0  0  0  0
    0.0000    0.0000    0.0000 C   0  0  0  0  0  0  0  0  0  0  0  0
    0.0000    0.0000    0.0000 C   0  0  0  0  0  0  0  0  0  0  0  0
    0.0000    0.0000    0.0000 N   0  0  0  0  0  0  0  0  0  0  0  0
    0.0000    0.0000    0.0000 N   0  0  0  0  0  0  0  0  0  0  0  0
    0.0000    0.0000    0.0000 C   0  0  0  0  0  0  0  0  0  0  0  0
    0.0000    0.0000    0.0000 C   0  0  0  0  0  0  0  0  0  0  0  0
    0.0000    0.0000    0.0000 C   0  0  0  0  0  0  0  0  0  0  0  0
    0.0000    0.0000    0.0000 C   0  0  0  0  0  0  0  0  0  0  0  0
    0.0000    0.0000    0.0000 N   0  0  0  0  0  0  0  0  0  0  0  0
    0.0000    0.0000    0.0000 C   0  0  0  0  0  0  0  0  0  0  0  0
    0.0000    0.0000    0.0000 N   0  0  0  0  0  0  0  0  0  0  0  0
    0.0000    0.0000    0.0000 C   0  0  0  0  0  0  0  0  0  0  0  0
    0.0000    0.0000    0.0000 N   0  0  0  0  0  0  0  0  0  0  0  0
    0.0000    0.0000    0.0000 C   0  0  0  0  0  0  0  0  0  0  0  0
  1  2  1  0
  2  3  1  0
  3  4  2  0
  4  5  1  0
  5  6  2  0
  6  7  1  0
  7  8  2  0
  8  9  1  0
  9 10  1  0
  6 11  1  0
 11 12  2  0
 12 13  1  0
 13 14  1  0
 14 15  1  0
 14 16  1  0
 13 17  1  0
 17 18  2  0
 18 19  1  0
 19 20  2  0
 20 21  1  0
 21 22  1  0
 21 23  2  0
  8  3  1  0
 23 11  1  0
 23 17  1  0
M  END
>  <pIC50>  (424) 
5.39

>  <ChEMBL_ID>  (424) 
CHEMBL1242290

>  <document_journal>  (424) 
Nat. Chem. Biol.

>  <bao_endpoint>  (424) 
BAO_0000190

>  <potential_duplicate>  (424) 
False

>  <uo_units>  (424) 
UO_0000065

>  <canonical_smiles>  (424) 
COc1ccc(cc1OC)c2nn(C(C)C)c3ncnc(N)c23

>  <parent_molecule_chembl_id>  (424) 
CHEMBL1242290

>  <assay_type>  (424) 
B

>  <src_id>  (424) 
1

>  <ligand_efficiency>  (424) 
{u'le': u'0.32', u'bei': u'17.19', u'sei': u'6.12', u'lle': u'2.86'}

>  <standard_flag>  (424) 
True

>  <molecule_chembl_id>  (424) 
CHEMBL1242290

>  <target_organism>  (424) 
Homo sapiens

>  <standard_units>  (424) 
nM

>  <record_id>  (424) 
953449

>  <document_chembl_id>  (424) 
CHEMBL1240340

>  <bao_format>  (424) 
BAO_0000357

>  <data_validity_description>  (424) 
None

>  <activity_id>  (424) 
3443294

>  <standard_type>  (424) 
IC50

>  <target_chembl_id>  (424) 
CHEMBL1862

>  <data_validity_comment>  (424) 
None

>  <published_value>  (424) 
4.1

>  <document_year>  (424) 
2008

>  <target_pref_name>  (424) 
Tyrosine-protein kinase ABL

>  <assay_chembl_id>  (424) 
CHEMBL1243972

>  <standard_relation>  (424) 
=

>  <assay_description>  (424) 
Inhibition of recombinant c-Abl by radioactive phosphotransfer assay in presence of 10 uM ATP

>  <published_relation>  (424) 
=

>  <standard_value>  (424) 
4100

>  <qudt_units>  (424) 
http://www.openphacts.org/units/Nanomolar

>  <target_tax_id>  (424) 
9606

>  <bao_label>  (424) 
single protein format

>  <published_units>  (424) 
uM

>  <pchembl_value>  (424) 
5.39

>  <published_type>  (424) 
IC50

>  <activity_comment>  (424) 
None

$$$$

     RDKit          

 24 26  0  0  0  0  0  0  0  0999 V2000
    0.0000    0.0000    0.0000 C   0  0  0  0  0  0  0  0  0  0  0  0
    0.0000    0.0000    0.0000 O   0  0  0  0  0  0  0  0  0  0  0  0
    0.0000    0.0000    0.0000 C   0  0  0  0  0  0  0  0  0  0  0  0
    0.0000    0.0000    0.0000 C   0  0  0  0  0  0  0  0  0  0  0  0
    0.0000    0.0000    0.0000 C   0  0  0  0  0  0  0  0  0  0  0  0
    0.0000    0.0000    0.0000 C   0  0  0  0  0  0  0  0  0  0  0  0
    0.0000    0.0000    0.0000 C   0  0  0  0  0  0  0  0  0  0  0  0
    0.0000    0.0000    0.0000 C   0  0  0  0  0  0  0  0  0  0  0  0
    0.0000    0.0000    0.0000 O   0  0  0  0  0  0  0  0  0  0  0  0
    0.0000    0.0000    0.0000 C   0  0  0  0  0  0  0  0  0  0  0  0
    0.0000    0.0000    0.0000 C   0  0  0  0  0  0  0  0  0  0  0  0
    0.0000    0.0000    0.0000 N   0  0  0  0  0  0  0  0  0  0  0  0
    0.0000    0.0000    0.0000 N   0  0  0  0  0  0  0  0  0  0  0  0
    0.0000    0.0000    0.0000 C   0  0  0  0  0  0  0  0  0  0  0  0
    0.0000    0.0000    0.0000 N   0  0  0  0  0  0  0  0  0  0  0  0
    0.0000    0.0000    0.0000 C   0  0  0  0  0  0  0  0  0  0  0  0
    0.0000    0.0000    0.0000 N   0  0  0  0  0  0  0  0  0  0  0  0
    0.0000    0.0000    0.0000 C   0  0  0  0  0  0  0  0  0  0  0  0
    0.0000    0.0000    0.0000 N   0  0  0  0  0  0  0  0  0  0  0  0
    0.0000    0.0000    0.0000 C   0  0  0  0  0  0  0  0  0  0  0  0
    0.0000    0.0000    0.0000 C   0  0  0  0  0  0  0  0  0  0  0  0
    0.0000    0.0000    0.0000 C   0  0  0  0  0  0  0  0  0  0  0  0
    0.0000    0.0000    0.0000 C   0  0  0  0  0  0  0  0  0  0  0  0
    0.0000    0.0000    0.0000 C   0  0  0  0  0  0  0  0  0  0  0  0
  1  2  1  0
  2  3  1  0
  3  4  2  0
  4  5  1  0
  5  6  2  0
  6  7  1  0
  7  8  2  0
  8  9  1  0
  9 10  1  0
  6 11  1  0
 11 12  2  0
 12 13  1  0
 13 14  1  0
 14 15  2  0
 15 16  1  0
 16 17  2  0
 17 18  1  0
 18 19  1  0
 18 20  2  0
 13 21  1  0
 21 22  1  0
 21 23  1  0
 21 24  1  0
  8  3  1  0
 20 11  1  0
 20 14  1  0
M  END
>  <pIC50>  (425) 
5.36

>  <ChEMBL_ID>  (425) 
CHEMBL1242379

>  <document_journal>  (425) 
Nat. Chem. Biol.

>  <bao_endpoint>  (425) 
BAO_0000190

>  <potential_duplicate>  (425) 
False

>  <uo_units>  (425) 
UO_0000065

>  <canonical_smiles>  (425) 
COc1ccc(cc1OC)c2nn(c3ncnc(N)c23)C(C)(C)C

>  <parent_molecule_chembl_id>  (425) 
CHEMBL1242379

>  <assay_type>  (425) 
B

>  <src_id>  (425) 
1

>  <ligand_efficiency>  (425) 
{u'le': u'0.3', u'bei': u'16.36', u'sei': u'6.08', u'lle': u'2.62'}

>  <standard_flag>  (425) 
True

>  <molecule_chembl_id>  (425) 
CHEMBL1242379

>  <target_organism>  (425) 
Homo sapiens

>  <standard_units>  (425) 
nM

>  <record_id>  (425) 
953577

>  <document_chembl_id>  (425) 
CHEMBL1240340

>  <bao_format>  (425) 
BAO_0000357

>  <data_validity_description>  (425) 
None

>  <activity_id>  (425) 
3443308

>  <standard_type>  (425) 
IC50

>  <target_chembl_id>  (425) 
CHEMBL1862

>  <data_validity_comment>  (425) 
None

>  <published_value>  (425) 
4.4

>  <document_year>  (425) 
2008

>  <target_pref_name>  (425) 
Tyrosine-protein kinase ABL

>  <assay_chembl_id>  (425) 
CHEMBL1243972

>  <standard_relation>  (425) 
=

>  <assay_description>  (425) 
Inhibition of recombinant c-Abl by radioactive phosphotransfer assay in presence of 10 uM ATP

>  <published_relation>  (425) 
=

>  <standard_value>  (425) 
4400

>  <qudt_units>  (425) 
http://www.openphacts.org/units/Nanomolar

>  <target_tax_id>  (425) 
9606

>  <bao_label>  (425) 
single protein format

>  <published_units>  (425) 
uM

>  <pchembl_value>  (425) 
5.36

>  <published_type>  (425) 
IC50

>  <activity_comment>  (425) 
None

$$$$

     RDKit          

 24 27  0  0  0  0  0  0  0  0999 V2000
    0.0000    0.0000    0.0000 C   0  0  0  0  0  0  0  0  0  0  0  0
    0.0000    0.0000    0.0000 C   0  0  0  0  0  0  0  0  0  0  0  0
    0.0000    0.0000    0.0000 O   0  0  0  0  0  0  0  0  0  0  0  0
    0.0000    0.0000    0.0000 C   0  0  0  0  0  0  0  0  0  0  0  0
    0.0000    0.0000    0.0000 C   0  0  0  0  0  0  0  0  0  0  0  0
    0.0000    0.0000    0.0000 C   0  0  0  0  0  0  0  0  0  0  0  0
    0.0000    0.0000    0.0000 C   0  0  0  0  0  0  0  0  0  0  0  0
    0.0000    0.0000    0.0000 C   0  0  0  0  0  0  0  0  0  0  0  0
    0.0000    0.0000    0.0000 C   0  0  0  0  0  0  0  0  0  0  0  0
    0.0000    0.0000    0.0000 C   0  0  0  0  0  0  0  0  0  0  0  0
    0.0000    0.0000    0.0000 C   0  0  0  0  0  0  0  0  0  0  0  0
    0.0000    0.0000    0.0000 C   0  0  0  0  0  0  0  0  0  0  0  0
    0.0000    0.0000    0.0000 C   0  0  0  0  0  0  0  0  0  0  0  0
    0.0000    0.0000    0.0000 C   0  0  0  0  0  0  0  0  0  0  0  0
    0.0000    0.0000    0.0000 N   0  0  0  0  0  0  0  0  0  0  0  0
    0.0000    0.0000    0.0000 N   0  0  0  0  0  0  0  0  0  0  0  0
    0.0000    0.0000    0.0000 C   0  0  0  0  0  0  0  0  0  0  0  0
    0.0000    0.0000    0.0000 C   0  0  0  0  0  0  0  0  0  0  0  0
    0.0000    0.0000    0.0000 N   0  0  0  0  0  0  0  0  0  0  0  0
    0.0000    0.0000    0.0000 C   0  0  0  0  0  0  0  0  0  0  0  0
    0.0000    0.0000    0.0000 N   0  0  0  0  0  0  0  0  0  0  0  0
    0.0000    0.0000    0.0000 C   0  0  0  0  0  0  0  0  0  0  0  0
    0.0000    0.0000    0.0000 N   0  0  0  0  0  0  0  0  0  0  0  0
    0.0000    0.0000    0.0000 C   0  0  0  0  0  0  0  0  0  0  0  0
  1  2  1  0
  2  3  1  0
  3  4  1  0
  4  5  2  0
  5  6  1  0
  6  7  2  0
  7  8  1  0
  8  9  2  0
  9 10  1  0
 10 11  2  0
 11 12  1  0
 12 13  2  0
  9 14  1  0
 14 15  2  0
 15 16  1  0
 16 17  1  0
 16 18  1  0
 18 19  2  0
 19 20  1  0
 20 21  2  0
 21 22  1  0
 22 23  1  0
 22 24  2  0
 13  4  1  0
 12  7  1  0
 24 14  1  0
 24 18  1  0
M  END
>  <pIC50>  (426) 
4.82

>  <ChEMBL_ID>  (426) 
CHEMBL1242661

>  <document_journal>  (426) 
Nat. Chem. Biol.

>  <bao_endpoint>  (426) 
BAO_0000190

>  <potential_duplicate>  (426) 
False

>  <uo_units>  (426) 
UO_0000065

>  <canonical_smiles>  (426) 
CCOc1ccc2cc(ccc2c1)c3nn(C)c4ncnc(N)c34

>  <parent_molecule_chembl_id>  (426) 
CHEMBL1242661

>  <assay_type>  (426) 
B

>  <src_id>  (426) 
1

>  <ligand_efficiency>  (426) 
{u'le': u'0.27', u'bei': u'15.1', u'sei': u'6.12', u'lle': u'1.74'}

>  <standard_flag>  (426) 
True

>  <molecule_chembl_id>  (426) 
CHEMBL1242661

>  <target_organism>  (426) 
Homo sapiens

>  <standard_units>  (426) 
nM

>  <record_id>  (426) 
953963

>  <document_chembl_id>  (426) 
CHEMBL1240340

>  <bao_format>  (426) 
BAO_0000357

>  <data_validity_description>  (426) 
None

>  <activity_id>  (426) 
3443769

>  <standard_type>  (426) 
IC50

>  <target_chembl_id>  (426) 
CHEMBL1862

>  <data_validity_comment>  (426) 
None

>  <published_value>  (426) 
15

>  <document_year>  (426) 
2008

>  <target_pref_name>  (426) 
Tyrosine-protein kinase ABL

>  <assay_chembl_id>  (426) 
CHEMBL1243972

>  <standard_relation>  (426) 
=

>  <assay_description>  (426) 
Inhibition of recombinant c-Abl by radioactive phosphotransfer assay in presence of 10 uM ATP

>  <published_relation>  (426) 
=

>  <standard_value>  (426) 
15000

>  <qudt_units>  (426) 
http://www.openphacts.org/units/Nanomolar

>  <target_tax_id>  (426) 
9606

>  <bao_label>  (426) 
single protein format

>  <published_units>  (426) 
uM

>  <pchembl_value>  (426) 
4.82

>  <published_type>  (426) 
IC50

>  <activity_comment>  (426) 
None

$$$$

     RDKit          

 24 27  0  0  0  0  0  0  0  0999 V2000
    0.0000    0.0000    0.0000 C   0  0  0  0  0  0  0  0  0  0  0  0
    0.0000    0.0000    0.0000 C   0  0  0  0  0  0  0  0  0  0  0  0
    0.0000    0.0000    0.0000 C   0  0  0  0  0  0  0  0  0  0  0  0
    0.0000    0.0000    0.0000 N   0  0  0  0  0  0  0  0  0  0  0  0
    0.0000    0.0000    0.0000 N   0  0  0  0  0  0  0  0  0  0  0  0
    0.0000    0.0000    0.0000 C   0  0  0  0  0  0  0  0  0  0  0  0
    0.0000    0.0000    0.0000 C   0  0  0  0  0  0  0  0  0  0  0  0
    0.0000    0.0000    0.0000 C   0  0  0  0  0  0  0  0  0  0  0  0
    0.0000    0.0000    0.0000 C   0  0  0  0  0  0  0  0  0  0  0  0
    0.0000    0.0000    0.0000 C   0  0  0  0  0  0  0  0  0  0  0  0
    0.0000    0.0000    0.0000 C   0  0  0  0  0  0  0  0  0  0  0  0
    0.0000    0.0000    0.0000 C   0  0  0  0  0  0  0  0  0  0  0  0
    0.0000    0.0000    0.0000 O   0  0  0  0  0  0  0  0  0  0  0  0
    0.0000    0.0000    0.0000 C   0  0  0  0  0  0  0  0  0  0  0  0
    0.0000    0.0000    0.0000 C   0  0  0  0  0  0  0  0  0  0  0  0
    0.0000    0.0000    0.0000 C   0  0  0  0  0  0  0  0  0  0  0  0
    0.0000    0.0000    0.0000 C   0  0  0  0  0  0  0  0  0  0  0  0
    0.0000    0.0000    0.0000 C   0  0  0  0  0  0  0  0  0  0  0  0
    0.0000    0.0000    0.0000 C   0  0  0  0  0  0  0  0  0  0  0  0
    0.0000    0.0000    0.0000 N   0  0  0  0  0  0  0  0  0  0  0  0
    0.0000    0.0000    0.0000 N   0  0  0  0  0  0  0  0  0  0  0  0
    0.0000    0.0000    0.0000 C   0  0  0  0  0  0  0  0  0  0  0  0
    0.0000    0.0000    0.0000 N   0  0  0  0  0  0  0  0  0  0  0  0
    0.0000    0.0000    0.0000 C   0  0  0  0  0  0  0  0  0  0  0  0
  1  2  1  0
  2  3  1  0
  2  4  1  0
  4  5  1  0
  5  6  2  0
  6  7  1  0
  7  8  2  0
  8  9  1  0
  9 10  2  0
 10 11  1  0
 11 12  2  0
 12 13  1  0
 12 14  1  0
 14 15  2  0
 15 16  1  0
 16 17  2  0
  6 18  1  0
 18 19  2  0
 19 20  1  0
 19 21  1  0
 21 22  2  0
 22 23  1  0
 23 24  2  0
 24  4  1  0
 17  7  1  0
 16 10  1  0
 24 18  1  0
M  END
>  <pIC50>  (427) 
7.24

>  <ChEMBL_ID>  (427) 
CHEMBL1242662

>  <document_journal>  (427) 
Nat. Chem. Biol.

>  <bao_endpoint>  (427) 
BAO_0000190

>  <potential_duplicate>  (427) 
False

>  <uo_units>  (427) 
UO_0000065

>  <canonical_smiles>  (427) 
CC(C)n1nc(c2ccc3cc(O)ccc3c2)c4c(N)ncnc14

>  <parent_molecule_chembl_id>  (427) 
CHEMBL1242662

>  <assay_type>  (427) 
B

>  <src_id>  (427) 
1

>  <ligand_efficiency>  (427) 
{u'le': u'0.41', u'bei': u'22.68', u'sei': u'8.06', u'lle': u'4.01'}

>  <standard_flag>  (427) 
True

>  <molecule_chembl_id>  (427) 
CHEMBL1242662

>  <target_organism>  (427) 
Homo sapiens

>  <standard_units>  (427) 
nM

>  <record_id>  (427) 
953964

>  <document_chembl_id>  (427) 
CHEMBL1240340

>  <bao_format>  (427) 
BAO_0000357

>  <data_validity_description>  (427) 
None

>  <activity_id>  (427) 
3443783

>  <standard_type>  (427) 
IC50

>  <target_chembl_id>  (427) 
CHEMBL1862

>  <data_validity_comment>  (427) 
None

>  <published_value>  (427) 
0.057

>  <document_year>  (427) 
2008

>  <target_pref_name>  (427) 
Tyrosine-protein kinase ABL

>  <assay_chembl_id>  (427) 
CHEMBL1243972

>  <standard_relation>  (427) 
=

>  <assay_description>  (427) 
Inhibition of recombinant c-Abl by radioactive phosphotransfer assay in presence of 10 uM ATP

>  <published_relation>  (427) 
=

>  <standard_value>  (427) 
57

>  <qudt_units>  (427) 
http://www.openphacts.org/units/Nanomolar

>  <target_tax_id>  (427) 
9606

>  <bao_label>  (427) 
single protein format

>  <published_units>  (427) 
uM

>  <pchembl_value>  (427) 
7.24

>  <published_type>  (427) 
IC50

>  <activity_comment>  (427) 
None

$$$$

     RDKit          

 24 27  0  0  0  0  0  0  0  0999 V2000
    0.0000    0.0000    0.0000 C   0  0  0  0  0  0  0  0  0  0  0  0
    0.0000    0.0000    0.0000 C   0  0  0  0  0  0  0  0  0  0  0  0
    0.0000    0.0000    0.0000 C   0  0  0  0  0  0  0  0  0  0  0  0
    0.0000    0.0000    0.0000 N   0  0  0  0  0  0  0  0  0  0  0  0
    0.0000    0.0000    0.0000 N   0  0  0  0  0  0  0  0  0  0  0  0
    0.0000    0.0000    0.0000 C   0  0  0  0  0  0  0  0  0  0  0  0
    0.0000    0.0000    0.0000 C   0  0  0  0  0  0  0  0  0  0  0  0
    0.0000    0.0000    0.0000 C   0  0  0  0  0  0  0  0  0  0  0  0
    0.0000    0.0000    0.0000 C   0  0  0  0  0  0  0  0  0  0  0  0
    0.0000    0.0000    0.0000 C   0  0  0  0  0  0  0  0  0  0  0  0
    0.0000    0.0000    0.0000 C   0  0  0  0  0  0  0  0  0  0  0  0
    0.0000    0.0000    0.0000 C   0  0  0  0  0  0  0  0  0  0  0  0
    0.0000    0.0000    0.0000 C   0  0  0  0  0  0  0  0  0  0  0  0
    0.0000    0.0000    0.0000 C   0  0  0  0  0  0  0  0  0  0  0  0
    0.0000    0.0000    0.0000 N   0  0  0  0  0  0  0  0  0  0  0  0
    0.0000    0.0000    0.0000 C   0  0  0  0  0  0  0  0  0  0  0  0
    0.0000    0.0000    0.0000 Cl  0  0  0  0  0  0  0  0  0  0  0  0
    0.0000    0.0000    0.0000 C   0  0  0  0  0  0  0  0  0  0  0  0
    0.0000    0.0000    0.0000 C   0  0  0  0  0  0  0  0  0  0  0  0
    0.0000    0.0000    0.0000 N   0  0  0  0  0  0  0  0  0  0  0  0
    0.0000    0.0000    0.0000 N   0  0  0  0  0  0  0  0  0  0  0  0
    0.0000    0.0000    0.0000 C   0  0  0  0  0  0  0  0  0  0  0  0
    0.0000    0.0000    0.0000 N   0  0  0  0  0  0  0  0  0  0  0  0
    0.0000    0.0000    0.0000 C   0  0  0  0  0  0  0  0  0  0  0  0
  1  2  1  0
  2  3  1  0
  2  4  1  0
  4  5  1  0
  5  6  2  0
  6  7  1  0
  7  8  2  0
  8  9  1  0
  9 10  2  0
 10 11  1  0
 11 12  2  0
 12 13  1  0
 13 14  2  0
 14 15  1  0
 15 16  2  0
 16 17  1  0
  6 18  1  0
 18 19  2  0
 19 20  1  0
 19 21  1  0
 21 22  2  0
 22 23  1  0
 23 24  2  0
 24  4  1  0
 16  7  1  0
 14  9  1  0
 24 18  1  0
M  END
>  <pIC50>  (428) 
5.7

>  <ChEMBL_ID>  (428) 
CHEMBL1242663

>  <document_journal>  (428) 
Nat. Chem. Biol.

>  <bao_endpoint>  (428) 
BAO_0000190

>  <potential_duplicate>  (428) 
False

>  <uo_units>  (428) 
UO_0000065

>  <canonical_smiles>  (428) 
CC(C)n1nc(c2cc3ccccc3nc2Cl)c4c(N)ncnc14

>  <parent_molecule_chembl_id>  (428) 
CHEMBL1242663

>  <assay_type>  (428) 
B

>  <src_id>  (428) 
1

>  <ligand_efficiency>  (428) 
{u'le': u'0.32', u'bei': u'16.82', u'sei': u'6.91', u'lle': u'2.07'}

>  <standard_flag>  (428) 
True

>  <molecule_chembl_id>  (428) 
CHEMBL1242663

>  <target_organism>  (428) 
Homo sapiens

>  <standard_units>  (428) 
nM

>  <record_id>  (428) 
953965

>  <document_chembl_id>  (428) 
CHEMBL1240340

>  <bao_format>  (428) 
BAO_0000357

>  <data_validity_description>  (428) 
None

>  <activity_id>  (428) 
3443797

>  <standard_type>  (428) 
IC50

>  <target_chembl_id>  (428) 
CHEMBL1862

>  <data_validity_comment>  (428) 
None

>  <published_value>  (428) 
2

>  <document_year>  (428) 
2008

>  <target_pref_name>  (428) 
Tyrosine-protein kinase ABL

>  <assay_chembl_id>  (428) 
CHEMBL1243972

>  <standard_relation>  (428) 
=

>  <assay_description>  (428) 
Inhibition of recombinant c-Abl by radioactive phosphotransfer assay in presence of 10 uM ATP

>  <published_relation>  (428) 
=

>  <standard_value>  (428) 
2000

>  <qudt_units>  (428) 
http://www.openphacts.org/units/Nanomolar

>  <target_tax_id>  (428) 
9606

>  <bao_label>  (428) 
single protein format

>  <published_units>  (428) 
uM

>  <pchembl_value>  (428) 
5.7

>  <published_type>  (428) 
IC50

>  <activity_comment>  (428) 
None

$$$$

     RDKit          

 23 26  0  0  0  0  0  0  0  0999 V2000
    0.0000    0.0000    0.0000 C   0  0  0  0  0  0  0  0  0  0  0  0
    0.0000    0.0000    0.0000 C   0  0  0  0  0  0  0  0  0  0  0  0
    0.0000    0.0000    0.0000 C   0  0  0  0  0  0  0  0  0  0  0  0
    0.0000    0.0000    0.0000 N   0  0  0  0  0  0  0  0  0  0  0  0
    0.0000    0.0000    0.0000 N   0  0  0  0  0  0  0  0  0  0  0  0
    0.0000    0.0000    0.0000 C   0  0  0  0  0  0  0  0  0  0  0  0
    0.0000    0.0000    0.0000 C   0  0  0  0  0  0  0  0  0  0  0  0
    0.0000    0.0000    0.0000 C   0  0  0  0  0  0  0  0  0  0  0  0
    0.0000    0.0000    0.0000 N   0  0  0  0  0  0  0  0  0  0  0  0
    0.0000    0.0000    0.0000 C   0  0  0  0  0  0  0  0  0  0  0  0
    0.0000    0.0000    0.0000 C   0  0  0  0  0  0  0  0  0  0  0  0
    0.0000    0.0000    0.0000 C   0  0  0  0  0  0  0  0  0  0  0  0
    0.0000    0.0000    0.0000 C   0  0  0  0  0  0  0  0  0  0  0  0
    0.0000    0.0000    0.0000 C   0  0  0  0  0  0  0  0  0  0  0  0
    0.0000    0.0000    0.0000 C   0  0  0  0  0  0  0  0  0  0  0  0
    0.0000    0.0000    0.0000 C   0  0  0  0  0  0  0  0  0  0  0  0
    0.0000    0.0000    0.0000 C   0  0  0  0  0  0  0  0  0  0  0  0
    0.0000    0.0000    0.0000 C   0  0  0  0  0  0  0  0  0  0  0  0
    0.0000    0.0000    0.0000 N   0  0  0  0  0  0  0  0  0  0  0  0
    0.0000    0.0000    0.0000 N   0  0  0  0  0  0  0  0  0  0  0  0
    0.0000    0.0000    0.0000 C   0  0  0  0  0  0  0  0  0  0  0  0
    0.0000    0.0000    0.0000 N   0  0  0  0  0  0  0  0  0  0  0  0
    0.0000    0.0000    0.0000 C   0  0  0  0  0  0  0  0  0  0  0  0
  1  2  1  0
  2  3  1  0
  2  4  1  0
  4  5  1  0
  5  6  2  0
  6  7  1  0
  7  8  2  0
  8  9  1  0
  9 10  2  0
 10 11  1  0
 11 12  2  0
 12 13  1  0
 13 14  2  0
 14 15  1  0
 15 16  2  0
  6 17  1  0
 17 18  2  0
 18 19  1  0
 18 20  1  0
 20 21  2  0
 21 22  1  0
 22 23  2  0
 23  4  1  0
 16  7  1  0
 15 10  1  0
 23 17  1  0
M  END
>  <pIC50>  (429) 
6.0

>  <ChEMBL_ID>  (429) 
CHEMBL1242754

>  <document_journal>  (429) 
Nat. Chem. Biol.

>  <bao_endpoint>  (429) 
BAO_0000190

>  <potential_duplicate>  (429) 
False

>  <uo_units>  (429) 
UO_0000065

>  <canonical_smiles>  (429) 
CC(C)n1nc(c2cnc3ccccc3c2)c4c(N)ncnc14

>  <parent_molecule_chembl_id>  (429) 
CHEMBL1242754

>  <assay_type>  (429) 
B

>  <src_id>  (429) 
1

>  <ligand_efficiency>  (429) 
{u'le': u'0.36', u'bei': u'19.71', u'sei': u'7.27', u'lle': u'3.25'}

>  <standard_flag>  (429) 
True

>  <molecule_chembl_id>  (429) 
CHEMBL1242754

>  <target_organism>  (429) 
Homo sapiens

>  <standard_units>  (429) 
nM

>  <record_id>  (429) 
954096

>  <document_chembl_id>  (429) 
CHEMBL1240340

>  <bao_format>  (429) 
BAO_0000357

>  <data_validity_description>  (429) 
None

>  <activity_id>  (429) 
3443811

>  <standard_type>  (429) 
IC50

>  <target_chembl_id>  (429) 
CHEMBL1862

>  <data_validity_comment>  (429) 
None

>  <published_value>  (429) 
1

>  <document_year>  (429) 
2008

>  <target_pref_name>  (429) 
Tyrosine-protein kinase ABL

>  <assay_chembl_id>  (429) 
CHEMBL1243972

>  <standard_relation>  (429) 
=

>  <assay_description>  (429) 
Inhibition of recombinant c-Abl by radioactive phosphotransfer assay in presence of 10 uM ATP

>  <published_relation>  (429) 
=

>  <standard_value>  (429) 
1000

>  <qudt_units>  (429) 
http://www.openphacts.org/units/Nanomolar

>  <target_tax_id>  (429) 
9606

>  <bao_label>  (429) 
single protein format

>  <published_units>  (429) 
uM

>  <pchembl_value>  (429) 
6

>  <published_type>  (429) 
IC50

>  <activity_comment>  (429) 
None

$$$$

     RDKit          

 25 29  0  0  0  0  0  0  0  0999 V2000
    0.0000    0.0000    0.0000 N   0  0  0  0  0  0  0  0  0  0  0  0
    0.0000    0.0000    0.0000 C   0  0  0  0  0  0  0  0  0  0  0  0
    0.0000    0.0000    0.0000 N   0  0  0  0  0  0  0  0  0  0  0  0
    0.0000    0.0000    0.0000 C   0  0  0  0  0  0  0  0  0  0  0  0
    0.0000    0.0000    0.0000 N   0  0  0  0  0  0  0  0  0  0  0  0
    0.0000    0.0000    0.0000 C   0  0  0  0  0  0  0  0  0  0  0  0
    0.0000    0.0000    0.0000 C   0  0  0  0  0  0  0  0  0  0  0  0
    0.0000    0.0000    0.0000 C   0  0  0  0  0  0  0  0  0  0  0  0
    0.0000    0.0000    0.0000 N   0  0  0  0  0  0  0  0  0  0  0  0
    0.0000    0.0000    0.0000 N   0  0  0  0  0  0  0  0  0  0  0  0
    0.0000    0.0000    0.0000 C   0  0  0  0  0  0  0  0  0  0  0  0
    0.0000    0.0000    0.0000 C   0  0  0  0  0  0  0  0  0  0  0  0
    0.0000    0.0000    0.0000 C   0  0  0  0  0  0  0  0  0  0  0  0
    0.0000    0.0000    0.0000 C   0  0  0  0  0  0  0  0  0  0  0  0
    0.0000    0.0000    0.0000 C   0  0  0  0  0  0  0  0  0  0  0  0
    0.0000    0.0000    0.0000 C   0  0  0  0  0  0  0  0  0  0  0  0
    0.0000    0.0000    0.0000 C   0  0  0  0  0  0  0  0  0  0  0  0
    0.0000    0.0000    0.0000 N   0  0  0  0  0  0  0  0  0  0  0  0
    0.0000    0.0000    0.0000 C   0  0  0  0  0  0  0  0  0  0  0  0
    0.0000    0.0000    0.0000 C   0  0  0  0  0  0  0  0  0  0  0  0
    0.0000    0.0000    0.0000 C   0  0  0  0  0  0  0  0  0  0  0  0
    0.0000    0.0000    0.0000 C   0  0  0  0  0  0  0  0  0  0  0  0
    0.0000    0.0000    0.0000 C   0  0  0  0  0  0  0  0  0  0  0  0
    0.0000    0.0000    0.0000 C   0  0  0  0  0  0  0  0  0  0  0  0
    0.0000    0.0000    0.0000 C   0  0  0  0  0  0  0  0  0  0  0  0
  1  2  1  0
  2  3  2  0
  3  4  1  0
  4  5  2  0
  5  6  1  0
  6  7  2  0
  7  8  1  0
  8  9  2  0
  9 10  1  0
 10 11  1  0
 11 12  1  0
 12 13  1  0
 13 14  1  0
 14 15  1  0
  8 16  1  0
 16 17  2  0
 17 18  1  0
 18 19  2  0
 19 20  1  0
 20 21  2  0
 21 22  1  0
 22 23  2  0
 23 24  1  0
 24 25  2  0
  7  2  1  0
 10  6  1  0
 15 11  1  0
 25 16  1  0
 24 19  1  0
M  END
>  <pIC50>  (430) 
6.12

>  <ChEMBL_ID>  (430) 
CHEMBL1242755

>  <document_journal>  (430) 
Nat. Chem. Biol.

>  <bao_endpoint>  (430) 
BAO_0000190

>  <potential_duplicate>  (430) 
False

>  <uo_units>  (430) 
UO_0000065

>  <canonical_smiles>  (430) 
Nc1ncnc2c1c(nn2C3CCCC3)c4cnc5ccccc5c4

>  <parent_molecule_chembl_id>  (430) 
CHEMBL1242755

>  <assay_type>  (430) 
B

>  <src_id>  (430) 
1

>  <ligand_efficiency>  (430) 
{u'le': u'0.33', u'bei': u'18.52', u'sei': u'7.42', u'lle': u'2.69'}

>  <standard_flag>  (430) 
True

>  <molecule_chembl_id>  (430) 
CHEMBL1242755

>  <target_organism>  (430) 
Homo sapiens

>  <standard_units>  (430) 
nM

>  <record_id>  (430) 
954097

>  <document_chembl_id>  (430) 
CHEMBL1240340

>  <bao_format>  (430) 
BAO_0000357

>  <data_validity_description>  (430) 
None

>  <activity_id>  (430) 
3443825

>  <standard_type>  (430) 
IC50

>  <target_chembl_id>  (430) 
CHEMBL1862

>  <data_validity_comment>  (430) 
None

>  <published_value>  (430) 
0.759

>  <document_year>  (430) 
2008

>  <target_pref_name>  (430) 
Tyrosine-protein kinase ABL

>  <assay_chembl_id>  (430) 
CHEMBL1243972

>  <standard_relation>  (430) 
=

>  <assay_description>  (430) 
Inhibition of recombinant c-Abl by radioactive phosphotransfer assay in presence of 10 uM ATP

>  <published_relation>  (430) 
=

>  <standard_value>  (430) 
759

>  <qudt_units>  (430) 
http://www.openphacts.org/units/Nanomolar

>  <target_tax_id>  (430) 
9606

>  <bao_label>  (430) 
single protein format

>  <published_units>  (430) 
uM

>  <pchembl_value>  (430) 
6.12

>  <published_type>  (430) 
IC50

>  <activity_comment>  (430) 
None

$$$$

     RDKit          

 21 24  0  0  0  0  0  0  0  0999 V2000
    0.0000    0.0000    0.0000 C   0  0  0  0  0  0  0  0  0  0  0  0
    0.0000    0.0000    0.0000 N   0  0  0  0  0  0  0  0  0  0  0  0
    0.0000    0.0000    0.0000 N   0  0  0  0  0  0  0  0  0  0  0  0
    0.0000    0.0000    0.0000 C   0  0  0  0  0  0  0  0  0  0  0  0
    0.0000    0.0000    0.0000 C   0  0  0  0  0  0  0  0  0  0  0  0
    0.0000    0.0000    0.0000 C   0  0  0  0  0  0  0  0  0  0  0  0
    0.0000    0.0000    0.0000 C   0  0  0  0  0  0  0  0  0  0  0  0
    0.0000    0.0000    0.0000 C   0  0  0  0  0  0  0  0  0  0  0  0
    0.0000    0.0000    0.0000 N   0  0  0  0  0  0  0  0  0  0  0  0
    0.0000    0.0000    0.0000 C   0  0  0  0  0  0  0  0  0  0  0  0
    0.0000    0.0000    0.0000 C   0  0  0  0  0  0  0  0  0  0  0  0
    0.0000    0.0000    0.0000 C   0  0  0  0  0  0  0  0  0  0  0  0
    0.0000    0.0000    0.0000 C   0  0  0  0  0  0  0  0  0  0  0  0
    0.0000    0.0000    0.0000 C   0  0  0  0  0  0  0  0  0  0  0  0
    0.0000    0.0000    0.0000 C   0  0  0  0  0  0  0  0  0  0  0  0
    0.0000    0.0000    0.0000 C   0  0  0  0  0  0  0  0  0  0  0  0
    0.0000    0.0000    0.0000 N   0  0  0  0  0  0  0  0  0  0  0  0
    0.0000    0.0000    0.0000 N   0  0  0  0  0  0  0  0  0  0  0  0
    0.0000    0.0000    0.0000 C   0  0  0  0  0  0  0  0  0  0  0  0
    0.0000    0.0000    0.0000 N   0  0  0  0  0  0  0  0  0  0  0  0
    0.0000    0.0000    0.0000 C   0  0  0  0  0  0  0  0  0  0  0  0
  1  2  1  0
  2  3  1  0
  3  4  2  0
  4  5  1  0
  5  6  2  0
  6  7  1  0
  7  8  2  0
  8  9  1  0
  9 10  2  0
 10 11  1  0
 11 12  2  0
 12 13  1  0
 13 14  2  0
  4 15  1  0
 15 16  2  0
 16 17  1  0
 16 18  1  0
 18 19  2  0
 19 20  1  0
 20 21  2  0
 21  2  1  0
 14  5  1  0
 13  8  1  0
 21 15  1  0
M  END
>  <pIC50>  (431) 
4.0

>  <ChEMBL_ID>  (431) 
CHEMBL1242756

>  <document_journal>  (431) 
Nat. Chem. Biol.

>  <bao_endpoint>  (431) 
BAO_0000190

>  <potential_duplicate>  (431) 
False

>  <uo_units>  (431) 
UO_0000065

>  <canonical_smiles>  (431) 
Cn1nc(c2ccc3ncccc3c2)c4c(N)ncnc14

>  <parent_molecule_chembl_id>  (431) 
CHEMBL1242756

>  <assay_type>  (431) 
B

>  <src_id>  (431) 
1

>  <ligand_efficiency>  (431) 
{u'le': u'0.26', u'bei': u'14.48', u'sei': u'4.85', u'lle': u'1.97'}

>  <standard_flag>  (431) 
True

>  <molecule_chembl_id>  (431) 
CHEMBL1242756

>  <target_organism>  (431) 
Homo sapiens

>  <standard_units>  (431) 
nM

>  <record_id>  (431) 
954098

>  <document_chembl_id>  (431) 
CHEMBL1240340

>  <bao_format>  (431) 
BAO_0000357

>  <data_validity_description>  (431) 
None

>  <activity_id>  (431) 
3443839

>  <standard_type>  (431) 
IC50

>  <target_chembl_id>  (431) 
CHEMBL1862

>  <data_validity_comment>  (431) 
None

>  <published_value>  (431) 
100

>  <document_year>  (431) 
2008

>  <target_pref_name>  (431) 
Tyrosine-protein kinase ABL

>  <assay_chembl_id>  (431) 
CHEMBL1243972

>  <standard_relation>  (431) 
=

>  <assay_description>  (431) 
Inhibition of recombinant c-Abl by radioactive phosphotransfer assay in presence of 10 uM ATP

>  <published_relation>  (431) 
=

>  <standard_value>  (431) 
100000

>  <qudt_units>  (431) 
http://www.openphacts.org/units/Nanomolar

>  <target_tax_id>  (431) 
9606

>  <bao_label>  (431) 
single protein format

>  <published_units>  (431) 
uM

>  <pchembl_value>  (431) 
4

>  <published_type>  (431) 
IC50

>  <activity_comment>  (431) 
None

$$$$

     RDKit          

 25 29  0  0  0  0  0  0  0  0999 V2000
    0.0000    0.0000    0.0000 N   0  0  0  0  0  0  0  0  0  0  0  0
    0.0000    0.0000    0.0000 C   0  0  0  0  0  0  0  0  0  0  0  0
    0.0000    0.0000    0.0000 N   0  0  0  0  0  0  0  0  0  0  0  0
    0.0000    0.0000    0.0000 C   0  0  0  0  0  0  0  0  0  0  0  0
    0.0000    0.0000    0.0000 N   0  0  0  0  0  0  0  0  0  0  0  0
    0.0000    0.0000    0.0000 C   0  0  0  0  0  0  0  0  0  0  0  0
    0.0000    0.0000    0.0000 C   0  0  0  0  0  0  0  0  0  0  0  0
    0.0000    0.0000    0.0000 C   0  0  0  0  0  0  0  0  0  0  0  0
    0.0000    0.0000    0.0000 N   0  0  0  0  0  0  0  0  0  0  0  0
    0.0000    0.0000    0.0000 N   0  0  0  0  0  0  0  0  0  0  0  0
    0.0000    0.0000    0.0000 C   0  0  0  0  0  0  0  0  0  0  0  0
    0.0000    0.0000    0.0000 C   0  0  0  0  0  0  0  0  0  0  0  0
    0.0000    0.0000    0.0000 C   0  0  0  0  0  0  0  0  0  0  0  0
    0.0000    0.0000    0.0000 C   0  0  0  0  0  0  0  0  0  0  0  0
    0.0000    0.0000    0.0000 C   0  0  0  0  0  0  0  0  0  0  0  0
    0.0000    0.0000    0.0000 C   0  0  0  0  0  0  0  0  0  0  0  0
    0.0000    0.0000    0.0000 C   0  0  0  0  0  0  0  0  0  0  0  0
    0.0000    0.0000    0.0000 C   0  0  0  0  0  0  0  0  0  0  0  0
    0.0000    0.0000    0.0000 C   0  0  0  0  0  0  0  0  0  0  0  0
    0.0000    0.0000    0.0000 N   0  0  0  0  0  0  0  0  0  0  0  0
    0.0000    0.0000    0.0000 C   0  0  0  0  0  0  0  0  0  0  0  0
    0.0000    0.0000    0.0000 C   0  0  0  0  0  0  0  0  0  0  0  0
    0.0000    0.0000    0.0000 C   0  0  0  0  0  0  0  0  0  0  0  0
    0.0000    0.0000    0.0000 C   0  0  0  0  0  0  0  0  0  0  0  0
    0.0000    0.0000    0.0000 C   0  0  0  0  0  0  0  0  0  0  0  0
  1  2  1  0
  2  3  2  0
  3  4  1  0
  4  5  2  0
  5  6  1  0
  6  7  2  0
  7  8  1  0
  8  9  2  0
  9 10  1  0
 10 11  1  0
 11 12  1  0
 12 13  1  0
 13 14  1  0
 14 15  1  0
  8 16  1  0
 16 17  2  0
 17 18  1  0
 18 19  2  0
 19 20  1  0
 20 21  2  0
 21 22  1  0
 22 23  2  0
 23 24  1  0
 24 25  2  0
  7  2  1  0
 10  6  1  0
 15 11  1  0
 25 16  1  0
 24 19  1  0
M  END
>  <pIC50>  (432) 
5.82

>  <ChEMBL_ID>  (432) 
CHEMBL1241681

>  <document_journal>  (432) 
Nat. Chem. Biol.

>  <bao_endpoint>  (432) 
BAO_0000190

>  <potential_duplicate>  (432) 
False

>  <uo_units>  (432) 
UO_0000065

>  <canonical_smiles>  (432) 
Nc1ncnc2c1c(nn2C3CCCC3)c4ccc5ncccc5c4

>  <parent_molecule_chembl_id>  (432) 
CHEMBL1241681

>  <assay_type>  (432) 
B

>  <src_id>  (432) 
1

>  <ligand_efficiency>  (432) 
{u'le': u'0.32', u'bei': u'17.63', u'sei': u'7.06', u'lle': u'2.39'}

>  <standard_flag>  (432) 
True

>  <molecule_chembl_id>  (432) 
CHEMBL1241681

>  <target_organism>  (432) 
Homo sapiens

>  <standard_units>  (432) 
nM

>  <record_id>  (432) 
952528

>  <document_chembl_id>  (432) 
CHEMBL1240340

>  <bao_format>  (432) 
BAO_0000357

>  <data_validity_description>  (432) 
None

>  <activity_id>  (432) 
3443993

>  <standard_type>  (432) 
IC50

>  <target_chembl_id>  (432) 
CHEMBL1862

>  <data_validity_comment>  (432) 
None

>  <published_value>  (432) 
1.5

>  <document_year>  (432) 
2008

>  <target_pref_name>  (432) 
Tyrosine-protein kinase ABL

>  <assay_chembl_id>  (432) 
CHEMBL1243972

>  <standard_relation>  (432) 
=

>  <assay_description>  (432) 
Inhibition of recombinant c-Abl by radioactive phosphotransfer assay in presence of 10 uM ATP

>  <published_relation>  (432) 
=

>  <standard_value>  (432) 
1500

>  <qudt_units>  (432) 
http://www.openphacts.org/units/Nanomolar

>  <target_tax_id>  (432) 
9606

>  <bao_label>  (432) 
single protein format

>  <published_units>  (432) 
uM

>  <pchembl_value>  (432) 
5.82

>  <published_type>  (432) 
IC50

>  <activity_comment>  (432) 
None

$$$$

     RDKit          

 24 27  0  0  0  0  0  0  0  0999 V2000
    0.0000    0.0000    0.0000 C   0  0  0  0  0  0  0  0  0  0  0  0
    0.0000    0.0000    0.0000 C   0  0  0  0  0  0  0  0  0  0  0  0
    0.0000    0.0000    0.0000 C   0  0  0  0  0  0  0  0  0  0  0  0
    0.0000    0.0000    0.0000 N   0  0  0  0  0  0  0  0  0  0  0  0
    0.0000    0.0000    0.0000 N   0  0  0  0  0  0  0  0  0  0  0  0
    0.0000    0.0000    0.0000 C   0  0  0  0  0  0  0  0  0  0  0  0
    0.0000    0.0000    0.0000 C   0  0  0  0  0  0  0  0  0  0  0  0
    0.0000    0.0000    0.0000 C   0  0  0  0  0  0  0  0  0  0  0  0
    0.0000    0.0000    0.0000 C   0  0  0  0  0  0  0  0  0  0  0  0
    0.0000    0.0000    0.0000 C   0  0  0  0  0  0  0  0  0  0  0  0
    0.0000    0.0000    0.0000 N   0  0  0  0  0  0  0  0  0  0  0  0
    0.0000    0.0000    0.0000 C   0  0  0  0  0  0  0  0  0  0  0  0
    0.0000    0.0000    0.0000 C   0  0  0  0  0  0  0  0  0  0  0  0
    0.0000    0.0000    0.0000 C   0  0  0  0  0  0  0  0  0  0  0  0
    0.0000    0.0000    0.0000 C   0  0  0  0  0  0  0  0  0  0  0  0
    0.0000    0.0000    0.0000 C   0  0  0  0  0  0  0  0  0  0  0  0
    0.0000    0.0000    0.0000 C   0  0  0  0  0  0  0  0  0  0  0  0
    0.0000    0.0000    0.0000 C   0  0  0  0  0  0  0  0  0  0  0  0
    0.0000    0.0000    0.0000 C   0  0  0  0  0  0  0  0  0  0  0  0
    0.0000    0.0000    0.0000 N   0  0  0  0  0  0  0  0  0  0  0  0
    0.0000    0.0000    0.0000 N   0  0  0  0  0  0  0  0  0  0  0  0
    0.0000    0.0000    0.0000 C   0  0  0  0  0  0  0  0  0  0  0  0
    0.0000    0.0000    0.0000 N   0  0  0  0  0  0  0  0  0  0  0  0
    0.0000    0.0000    0.0000 C   0  0  0  0  0  0  0  0  0  0  0  0
  1  2  1  0
  2  3  1  0
  2  4  1  0
  4  5  1  0
  5  6  2  0
  6  7  1  0
  7  8  2  0
  8  9  1  0
  9 10  2  0
 10 11  1  0
 11 12  2  0
 12 13  1  0
 12 14  1  0
 14 15  2  0
 15 16  1  0
 16 17  2  0
  6 18  1  0
 18 19  2  0
 19 20  1  0
 19 21  1  0
 21 22  2  0
 22 23  1  0
 23 24  2  0
 24  4  1  0
 17  7  1  0
 16 10  1  0
 24 18  1  0
M  END
>  <pIC50>  (433) 
5.29

>  <ChEMBL_ID>  (433) 
CHEMBL1241682

>  <document_journal>  (433) 
Nat. Chem. Biol.

>  <bao_endpoint>  (433) 
BAO_0000190

>  <potential_duplicate>  (433) 
False

>  <uo_units>  (433) 
UO_0000065

>  <canonical_smiles>  (433) 
CC(C)n1nc(c2ccc3nc(C)ccc3c2)c4c(N)ncnc14

>  <parent_molecule_chembl_id>  (433) 
CHEMBL1241682

>  <assay_type>  (433) 
B

>  <src_id>  (433) 
1

>  <ligand_efficiency>  (433) 
{u'le': u'0.3', u'bei': u'16.62', u'sei': u'6.41', u'lle': u'2.26'}

>  <standard_flag>  (433) 
True

>  <molecule_chembl_id>  (433) 
CHEMBL1241682

>  <target_organism>  (433) 
Homo sapiens

>  <standard_units>  (433) 
nM

>  <record_id>  (433) 
952529

>  <document_chembl_id>  (433) 
CHEMBL1240340

>  <bao_format>  (433) 
BAO_0000357

>  <data_validity_description>  (433) 
None

>  <activity_id>  (433) 
3444007

>  <standard_type>  (433) 
IC50

>  <target_chembl_id>  (433) 
CHEMBL1862

>  <data_validity_comment>  (433) 
None

>  <published_value>  (433) 
5.1

>  <document_year>  (433) 
2008

>  <target_pref_name>  (433) 
Tyrosine-protein kinase ABL

>  <assay_chembl_id>  (433) 
CHEMBL1243972

>  <standard_relation>  (433) 
=

>  <assay_description>  (433) 
Inhibition of recombinant c-Abl by radioactive phosphotransfer assay in presence of 10 uM ATP

>  <published_relation>  (433) 
=

>  <standard_value>  (433) 
5100

>  <qudt_units>  (433) 
http://www.openphacts.org/units/Nanomolar

>  <target_tax_id>  (433) 
9606

>  <bao_label>  (433) 
single protein format

>  <published_units>  (433) 
uM

>  <pchembl_value>  (433) 
5.29

>  <published_type>  (433) 
IC50

>  <activity_comment>  (433) 
None

$$$$

     RDKit          

 24 27  0  0  0  0  0  0  0  0999 V2000
    0.0000    0.0000    0.0000 C   0  0  0  0  0  0  0  0  0  0  0  0
    0.0000    0.0000    0.0000 C   0  0  0  0  0  0  0  0  0  0  0  0
    0.0000    0.0000    0.0000 C   0  0  0  0  0  0  0  0  0  0  0  0
    0.0000    0.0000    0.0000 N   0  0  0  0  0  0  0  0  0  0  0  0
    0.0000    0.0000    0.0000 N   0  0  0  0  0  0  0  0  0  0  0  0
    0.0000    0.0000    0.0000 C   0  0  0  0  0  0  0  0  0  0  0  0
    0.0000    0.0000    0.0000 C   0  0  0  0  0  0  0  0  0  0  0  0
    0.0000    0.0000    0.0000 C   0  0  0  0  0  0  0  0  0  0  0  0
    0.0000    0.0000    0.0000 C   0  0  0  0  0  0  0  0  0  0  0  0
    0.0000    0.0000    0.0000 C   0  0  0  0  0  0  0  0  0  0  0  0
    0.0000    0.0000    0.0000 N   0  0  0  0  0  0  0  0  0  0  0  0
    0.0000    0.0000    0.0000 C   0  0  0  0  0  0  0  0  0  0  0  0
    0.0000    0.0000    0.0000 Cl  0  0  0  0  0  0  0  0  0  0  0  0
    0.0000    0.0000    0.0000 C   0  0  0  0  0  0  0  0  0  0  0  0
    0.0000    0.0000    0.0000 C   0  0  0  0  0  0  0  0  0  0  0  0
    0.0000    0.0000    0.0000 C   0  0  0  0  0  0  0  0  0  0  0  0
    0.0000    0.0000    0.0000 C   0  0  0  0  0  0  0  0  0  0  0  0
    0.0000    0.0000    0.0000 C   0  0  0  0  0  0  0  0  0  0  0  0
    0.0000    0.0000    0.0000 C   0  0  0  0  0  0  0  0  0  0  0  0
    0.0000    0.0000    0.0000 N   0  0  0  0  0  0  0  0  0  0  0  0
    0.0000    0.0000    0.0000 N   0  0  0  0  0  0  0  0  0  0  0  0
    0.0000    0.0000    0.0000 C   0  0  0  0  0  0  0  0  0  0  0  0
    0.0000    0.0000    0.0000 N   0  0  0  0  0  0  0  0  0  0  0  0
    0.0000    0.0000    0.0000 C   0  0  0  0  0  0  0  0  0  0  0  0
  1  2  1  0
  2  3  1  0
  2  4  1  0
  4  5  1  0
  5  6  2  0
  6  7  1  0
  7  8  2  0
  8  9  1  0
  9 10  2  0
 10 11  1  0
 11 12  2  0
 12 13  1  0
 12 14  1  0
 14 15  2  0
 15 16  1  0
 16 17  2  0
  6 18  1  0
 18 19  2  0
 19 20  1  0
 19 21  1  0
 21 22  2  0
 22 23  1  0
 23 24  2  0
 24  4  1  0
 17  7  1  0
 16 10  1  0
 24 18  1  0
M  END
>  <pIC50>  (434) 
5.42

>  <ChEMBL_ID>  (434) 
CHEMBL1241683

>  <document_journal>  (434) 
Nat. Chem. Biol.

>  <bao_endpoint>  (434) 
BAO_0000190

>  <potential_duplicate>  (434) 
False

>  <uo_units>  (434) 
UO_0000065

>  <canonical_smiles>  (434) 
CC(C)n1nc(c2ccc3nc(Cl)ccc3c2)c4c(N)ncnc14

>  <parent_molecule_chembl_id>  (434) 
CHEMBL1241683

>  <assay_type>  (434) 
B

>  <src_id>  (434) 
1

>  <ligand_efficiency>  (434) 
{u'le': u'0.31', u'bei': u'16', u'sei': u'6.57', u'lle': u'1.79'}

>  <standard_flag>  (434) 
True

>  <molecule_chembl_id>  (434) 
CHEMBL1241683

>  <target_organism>  (434) 
Homo sapiens

>  <standard_units>  (434) 
nM

>  <record_id>  (434) 
952530

>  <document_chembl_id>  (434) 
CHEMBL1240340

>  <bao_format>  (434) 
BAO_0000357

>  <data_validity_description>  (434) 
None

>  <activity_id>  (434) 
3444021

>  <standard_type>  (434) 
IC50

>  <target_chembl_id>  (434) 
CHEMBL1862

>  <data_validity_comment>  (434) 
None

>  <published_value>  (434) 
3.8

>  <document_year>  (434) 
2008

>  <target_pref_name>  (434) 
Tyrosine-protein kinase ABL

>  <assay_chembl_id>  (434) 
CHEMBL1243972

>  <standard_relation>  (434) 
=

>  <assay_description>  (434) 
Inhibition of recombinant c-Abl by radioactive phosphotransfer assay in presence of 10 uM ATP

>  <published_relation>  (434) 
=

>  <standard_value>  (434) 
3800

>  <qudt_units>  (434) 
http://www.openphacts.org/units/Nanomolar

>  <target_tax_id>  (434) 
9606

>  <bao_label>  (434) 
single protein format

>  <published_units>  (434) 
uM

>  <pchembl_value>  (434) 
5.42

>  <published_type>  (434) 
IC50

>  <activity_comment>  (434) 
None

$$$$

     RDKit          

 23 26  0  0  0  0  0  0  0  0999 V2000
    0.0000    0.0000    0.0000 C   0  0  0  0  0  0  0  0  0  0  0  0
    0.0000    0.0000    0.0000 C   0  0  0  0  0  0  0  0  0  0  0  0
    0.0000    0.0000    0.0000 C   0  0  0  0  0  0  0  0  0  0  0  0
    0.0000    0.0000    0.0000 N   0  0  0  0  0  0  0  0  0  0  0  0
    0.0000    0.0000    0.0000 N   0  0  0  0  0  0  0  0  0  0  0  0
    0.0000    0.0000    0.0000 C   0  0  0  0  0  0  0  0  0  0  0  0
    0.0000    0.0000    0.0000 C   0  0  0  0  0  0  0  0  0  0  0  0
    0.0000    0.0000    0.0000 C   0  0  0  0  0  0  0  0  0  0  0  0
    0.0000    0.0000    0.0000 C   0  0  0  0  0  0  0  0  0  0  0  0
    0.0000    0.0000    0.0000 C   0  0  0  0  0  0  0  0  0  0  0  0
    0.0000    0.0000    0.0000 N   0  0  0  0  0  0  0  0  0  0  0  0
    0.0000    0.0000    0.0000 C   0  0  0  0  0  0  0  0  0  0  0  0
    0.0000    0.0000    0.0000 C   0  0  0  0  0  0  0  0  0  0  0  0
    0.0000    0.0000    0.0000 N   0  0  0  0  0  0  0  0  0  0  0  0
    0.0000    0.0000    0.0000 C   0  0  0  0  0  0  0  0  0  0  0  0
    0.0000    0.0000    0.0000 C   0  0  0  0  0  0  0  0  0  0  0  0
    0.0000    0.0000    0.0000 C   0  0  0  0  0  0  0  0  0  0  0  0
    0.0000    0.0000    0.0000 C   0  0  0  0  0  0  0  0  0  0  0  0
    0.0000    0.0000    0.0000 N   0  0  0  0  0  0  0  0  0  0  0  0
    0.0000    0.0000    0.0000 N   0  0  0  0  0  0  0  0  0  0  0  0
    0.0000    0.0000    0.0000 C   0  0  0  0  0  0  0  0  0  0  0  0
    0.0000    0.0000    0.0000 N   0  0  0  0  0  0  0  0  0  0  0  0
    0.0000    0.0000    0.0000 C   0  0  0  0  0  0  0  0  0  0  0  0
  1  2  1  0
  2  3  1  0
  2  4  1  0
  4  5  1  0
  5  6  2  0
  6  7  1  0
  7  8  2  0
  8  9  1  0
  9 10  2  0
 10 11  1  0
 11 12  2  0
 12 13  1  0
 13 14  2  0
 14 15  1  0
 15 16  2  0
  6 17  1  0
 17 18  2  0
 18 19  1  0
 18 20  1  0
 20 21  2  0
 21 22  1  0
 22 23  2  0
 23  4  1  0
 16  7  1  0
 15 10  1  0
 23 17  1  0
M  END
>  <pIC50>  (435) 
5.66

>  <ChEMBL_ID>  (435) 
CHEMBL1241774

>  <document_journal>  (435) 
Nat. Chem. Biol.

>  <bao_endpoint>  (435) 
BAO_0000190

>  <potential_duplicate>  (435) 
False

>  <uo_units>  (435) 
UO_0000065

>  <canonical_smiles>  (435) 
CC(C)n1nc(c2ccc3nccnc3c2)c4c(N)ncnc14

>  <parent_molecule_chembl_id>  (435) 
CHEMBL1241774

>  <assay_type>  (435) 
B

>  <src_id>  (435) 
1

>  <ligand_efficiency>  (435) 
{u'le': u'0.34', u'bei': u'18.53', u'sei': u'5.93', u'lle': u'3.63'}

>  <standard_flag>  (435) 
True

>  <molecule_chembl_id>  (435) 
CHEMBL1241774

>  <target_organism>  (435) 
Homo sapiens

>  <standard_units>  (435) 
nM

>  <record_id>  (435) 
952666

>  <document_chembl_id>  (435) 
CHEMBL1240340

>  <bao_format>  (435) 
BAO_0000357

>  <data_validity_description>  (435) 
None

>  <activity_id>  (435) 
3444035

>  <standard_type>  (435) 
IC50

>  <target_chembl_id>  (435) 
CHEMBL1862

>  <data_validity_comment>  (435) 
None

>  <published_value>  (435) 
2.2

>  <document_year>  (435) 
2008

>  <target_pref_name>  (435) 
Tyrosine-protein kinase ABL

>  <assay_chembl_id>  (435) 
CHEMBL1243972

>  <standard_relation>  (435) 
=

>  <assay_description>  (435) 
Inhibition of recombinant c-Abl by radioactive phosphotransfer assay in presence of 10 uM ATP

>  <published_relation>  (435) 
=

>  <standard_value>  (435) 
2200

>  <qudt_units>  (435) 
http://www.openphacts.org/units/Nanomolar

>  <target_tax_id>  (435) 
9606

>  <bao_label>  (435) 
single protein format

>  <published_units>  (435) 
uM

>  <pchembl_value>  (435) 
5.66

>  <published_type>  (435) 
IC50

>  <activity_comment>  (435) 
None

$$$$

     RDKit          

 23 26  0  0  0  0  0  0  0  0999 V2000
    0.0000    0.0000    0.0000 C   0  0  0  0  0  0  0  0  0  0  0  0
    0.0000    0.0000    0.0000 C   0  0  0  0  0  0  0  0  0  0  0  0
    0.0000    0.0000    0.0000 C   0  0  0  0  0  0  0  0  0  0  0  0
    0.0000    0.0000    0.0000 N   0  0  0  0  0  0  0  0  0  0  0  0
    0.0000    0.0000    0.0000 N   0  0  0  0  0  0  0  0  0  0  0  0
    0.0000    0.0000    0.0000 C   0  0  0  0  0  0  0  0  0  0  0  0
    0.0000    0.0000    0.0000 C   0  0  0  0  0  0  0  0  0  0  0  0
    0.0000    0.0000    0.0000 C   0  0  0  0  0  0  0  0  0  0  0  0
    0.0000    0.0000    0.0000 N   0  0  0  0  0  0  0  0  0  0  0  0
    0.0000    0.0000    0.0000 C   0  0  0  0  0  0  0  0  0  0  0  0
    0.0000    0.0000    0.0000 N   0  0  0  0  0  0  0  0  0  0  0  0
    0.0000    0.0000    0.0000 C   0  0  0  0  0  0  0  0  0  0  0  0
    0.0000    0.0000    0.0000 C   0  0  0  0  0  0  0  0  0  0  0  0
    0.0000    0.0000    0.0000 N   0  0  0  0  0  0  0  0  0  0  0  0
    0.0000    0.0000    0.0000 C   0  0  0  0  0  0  0  0  0  0  0  0
    0.0000    0.0000    0.0000 C   0  0  0  0  0  0  0  0  0  0  0  0
    0.0000    0.0000    0.0000 C   0  0  0  0  0  0  0  0  0  0  0  0
    0.0000    0.0000    0.0000 C   0  0  0  0  0  0  0  0  0  0  0  0
    0.0000    0.0000    0.0000 N   0  0  0  0  0  0  0  0  0  0  0  0
    0.0000    0.0000    0.0000 N   0  0  0  0  0  0  0  0  0  0  0  0
    0.0000    0.0000    0.0000 C   0  0  0  0  0  0  0  0  0  0  0  0
    0.0000    0.0000    0.0000 N   0  0  0  0  0  0  0  0  0  0  0  0
    0.0000    0.0000    0.0000 C   0  0  0  0  0  0  0  0  0  0  0  0
  1  2  1  0
  2  3  1  0
  2  4  1  0
  4  5  1  0
  5  6  2  0
  6  7  1  0
  7  8  2  0
  8  9  1  0
  9 10  2  0
 10 11  1  0
 11 12  2  0
 12 13  1  0
 13 14  2  0
 14 15  1  0
 15 16  2  0
  6 17  1  0
 17 18  2  0
 18 19  1  0
 18 20  1  0
 20 21  2  0
 21 22  1  0
 22 23  2  0
 23  4  1  0
 16  7  1  0
 15 10  1  0
 23 17  1  0
M  END
>  <pIC50>  (436) 
5.7

>  <ChEMBL_ID>  (436) 
CHEMBL1241775

>  <document_journal>  (436) 
Nat. Chem. Biol.

>  <bao_endpoint>  (436) 
BAO_0000190

>  <potential_duplicate>  (436) 
False

>  <uo_units>  (436) 
UO_0000065

>  <canonical_smiles>  (436) 
CC(C)n1nc(c2cnc3nccnc3c2)c4c(N)ncnc14

>  <parent_molecule_chembl_id>  (436) 
CHEMBL1241775

>  <assay_type>  (436) 
B

>  <src_id>  (436) 
1

>  <ligand_efficiency>  (436) 
{u'le': u'0.34', u'bei': u'18.6', u'sei': u'5.26', u'lle': u'4.62'}

>  <standard_flag>  (436) 
True

>  <molecule_chembl_id>  (436) 
CHEMBL1241775

>  <target_organism>  (436) 
Homo sapiens

>  <standard_units>  (436) 
nM

>  <record_id>  (436) 
952667

>  <document_chembl_id>  (436) 
CHEMBL1240340

>  <bao_format>  (436) 
BAO_0000357

>  <data_validity_description>  (436) 
None

>  <activity_id>  (436) 
3444049

>  <standard_type>  (436) 
IC50

>  <target_chembl_id>  (436) 
CHEMBL1862

>  <data_validity_comment>  (436) 
None

>  <published_value>  (436) 
2

>  <document_year>  (436) 
2008

>  <target_pref_name>  (436) 
Tyrosine-protein kinase ABL

>  <assay_chembl_id>  (436) 
CHEMBL1243972

>  <standard_relation>  (436) 
=

>  <assay_description>  (436) 
Inhibition of recombinant c-Abl by radioactive phosphotransfer assay in presence of 10 uM ATP

>  <published_relation>  (436) 
=

>  <standard_value>  (436) 
2000

>  <qudt_units>  (436) 
http://www.openphacts.org/units/Nanomolar

>  <target_tax_id>  (436) 
9606

>  <bao_label>  (436) 
single protein format

>  <published_units>  (436) 
uM

>  <pchembl_value>  (436) 
5.7

>  <published_type>  (436) 
IC50

>  <activity_comment>  (436) 
None

$$$$

     RDKit          

 24 27  0  0  0  0  0  0  0  0999 V2000
    0.0000    0.0000    0.0000 C   0  0  0  0  0  0  0  0  0  0  0  0
    0.0000    0.0000    0.0000 C   0  0  0  0  0  0  0  0  0  0  0  0
    0.0000    0.0000    0.0000 C   0  0  0  0  0  0  0  0  0  0  0  0
    0.0000    0.0000    0.0000 N   0  0  0  0  0  0  0  0  0  0  0  0
    0.0000    0.0000    0.0000 N   0  0  0  0  0  0  0  0  0  0  0  0
    0.0000    0.0000    0.0000 C   0  0  0  0  0  0  0  0  0  0  0  0
    0.0000    0.0000    0.0000 C   0  0  0  0  0  0  0  0  0  0  0  0
    0.0000    0.0000    0.0000 C   0  0  0  0  0  0  0  0  0  0  0  0
    0.0000    0.0000    0.0000 C   0  0  0  0  0  0  0  0  0  0  0  0
    0.0000    0.0000    0.0000 C   0  0  0  0  0  0  0  0  0  0  0  0
    0.0000    0.0000    0.0000 N   0  0  0  0  0  0  0  0  0  0  0  0
    0.0000    0.0000    0.0000 C   0  0  0  0  0  0  0  0  0  0  0  0
    0.0000    0.0000    0.0000 N   0  0  0  0  0  0  0  0  0  0  0  0
    0.0000    0.0000    0.0000 C   0  0  0  0  0  0  0  0  0  0  0  0
    0.0000    0.0000    0.0000 O   0  0  0  0  0  0  0  0  0  0  0  0
    0.0000    0.0000    0.0000 C   0  0  0  0  0  0  0  0  0  0  0  0
    0.0000    0.0000    0.0000 C   0  0  0  0  0  0  0  0  0  0  0  0
    0.0000    0.0000    0.0000 C   0  0  0  0  0  0  0  0  0  0  0  0
    0.0000    0.0000    0.0000 C   0  0  0  0  0  0  0  0  0  0  0  0
    0.0000    0.0000    0.0000 N   0  0  0  0  0  0  0  0  0  0  0  0
    0.0000    0.0000    0.0000 N   0  0  0  0  0  0  0  0  0  0  0  0
    0.0000    0.0000    0.0000 C   0  0  0  0  0  0  0  0  0  0  0  0
    0.0000    0.0000    0.0000 N   0  0  0  0  0  0  0  0  0  0  0  0
    0.0000    0.0000    0.0000 C   0  0  0  0  0  0  0  0  0  0  0  0
  1  2  1  0
  2  3  1  0
  2  4  1  0
  4  5  1  0
  5  6  2  0
  6  7  1  0
  7  8  2  0
  8  9  1  0
  9 10  2  0
 10 11  1  0
 11 12  2  0
 12 13  1  0
 13 14  1  0
 14 15  2  0
 14 16  1  0
 16 17  2  0
  6 18  1  0
 18 19  2  0
 19 20  1  0
 19 21  1  0
 21 22  2  0
 22 23  1  0
 23 24  2  0
 24  4  1  0
 17  7  1  0
 16 10  1  0
 24 18  1  0
M  END
>  <pIC50>  (437) 
6.48

>  <ChEMBL_ID>  (437) 
CHEMBL1241776

>  <document_journal>  (437) 
Nat. Chem. Biol.

>  <bao_endpoint>  (437) 
BAO_0000190

>  <potential_duplicate>  (437) 
False

>  <uo_units>  (437) 
UO_0000065

>  <canonical_smiles>  (437) 
CC(C)n1nc(c2ccc3N=CNC(=O)c3c2)c4c(N)ncnc14

>  <parent_molecule_chembl_id>  (437) 
CHEMBL1241776

>  <assay_type>  (437) 
B

>  <src_id>  (437) 
1

>  <ligand_efficiency>  (437) 
{u'le': u'0.37', u'bei': u'20.18', u'sei': u'5.84', u'lle': u'4.99'}

>  <standard_flag>  (437) 
True

>  <molecule_chembl_id>  (437) 
CHEMBL1241776

>  <target_organism>  (437) 
Homo sapiens

>  <standard_units>  (437) 
nM

>  <record_id>  (437) 
952668

>  <document_chembl_id>  (437) 
CHEMBL1240340

>  <bao_format>  (437) 
BAO_0000357

>  <data_validity_description>  (437) 
None

>  <activity_id>  (437) 
3444063

>  <standard_type>  (437) 
IC50

>  <target_chembl_id>  (437) 
CHEMBL1862

>  <data_validity_comment>  (437) 
None

>  <published_value>  (437) 
0.328

>  <document_year>  (437) 
2008

>  <target_pref_name>  (437) 
Tyrosine-protein kinase ABL

>  <assay_chembl_id>  (437) 
CHEMBL1243972

>  <standard_relation>  (437) 
=

>  <assay_description>  (437) 
Inhibition of recombinant c-Abl by radioactive phosphotransfer assay in presence of 10 uM ATP

>  <published_relation>  (437) 
=

>  <standard_value>  (437) 
328

>  <qudt_units>  (437) 
http://www.openphacts.org/units/Nanomolar

>  <target_tax_id>  (437) 
9606

>  <bao_label>  (437) 
single protein format

>  <published_units>  (437) 
uM

>  <pchembl_value>  (437) 
6.48

>  <published_type>  (437) 
IC50

>  <activity_comment>  (437) 
None

$$$$

     RDKit          

 24 27  0  0  0  0  0  0  0  0999 V2000
    0.0000    0.0000    0.0000 C   0  0  0  0  0  0  0  0  0  0  0  0
    0.0000    0.0000    0.0000 C   0  0  0  0  0  0  0  0  0  0  0  0
    0.0000    0.0000    0.0000 C   0  0  0  0  0  0  0  0  0  0  0  0
    0.0000    0.0000    0.0000 N   0  0  0  0  0  0  0  0  0  0  0  0
    0.0000    0.0000    0.0000 N   0  0  0  0  0  0  0  0  0  0  0  0
    0.0000    0.0000    0.0000 C   0  0  0  0  0  0  0  0  0  0  0  0
    0.0000    0.0000    0.0000 C   0  0  0  0  0  0  0  0  0  0  0  0
    0.0000    0.0000    0.0000 C   0  0  0  0  0  0  0  0  0  0  0  0
    0.0000    0.0000    0.0000 C   0  0  0  0  0  0  0  0  0  0  0  0
    0.0000    0.0000    0.0000 C   0  0  0  0  0  0  0  0  0  0  0  0
    0.0000    0.0000    0.0000 N   0  0  0  0  0  0  0  0  0  0  0  0
    0.0000    0.0000    0.0000 C   0  0  0  0  0  0  0  0  0  0  0  0
    0.0000    0.0000    0.0000 O   0  0  0  0  0  0  0  0  0  0  0  0
    0.0000    0.0000    0.0000 C   0  0  0  0  0  0  0  0  0  0  0  0
    0.0000    0.0000    0.0000 C   0  0  0  0  0  0  0  0  0  0  0  0
    0.0000    0.0000    0.0000 C   0  0  0  0  0  0  0  0  0  0  0  0
    0.0000    0.0000    0.0000 C   0  0  0  0  0  0  0  0  0  0  0  0
    0.0000    0.0000    0.0000 C   0  0  0  0  0  0  0  0  0  0  0  0
    0.0000    0.0000    0.0000 C   0  0  0  0  0  0  0  0  0  0  0  0
    0.0000    0.0000    0.0000 N   0  0  0  0  0  0  0  0  0  0  0  0
    0.0000    0.0000    0.0000 N   0  0  0  0  0  0  0  0  0  0  0  0
    0.0000    0.0000    0.0000 C   0  0  0  0  0  0  0  0  0  0  0  0
    0.0000    0.0000    0.0000 N   0  0  0  0  0  0  0  0  0  0  0  0
    0.0000    0.0000    0.0000 C   0  0  0  0  0  0  0  0  0  0  0  0
  1  2  1  0
  2  3  1  0
  2  4  1  0
  4  5  1  0
  5  6  2  0
  6  7  1  0
  7  8  2  0
  8  9  1  0
  9 10  2  0
 10 11  1  0
 11 12  1  0
 12 13  2  0
 12 14  1  0
 14 15  2  0
 15 16  1  0
 16 17  2  0
  6 18  1  0
 18 19  2  0
 19 20  1  0
 19 21  1  0
 21 22  2  0
 22 23  1  0
 23 24  2  0
 24  4  1  0
 17  7  1  0
 16 10  1  0
 24 18  1  0
M  END
>  <pIC50>  (438) 
4.46

>  <ChEMBL_ID>  (438) 
CHEMBL1241863

>  <document_journal>  (438) 
Nat. Chem. Biol.

>  <bao_endpoint>  (438) 
BAO_0000190

>  <potential_duplicate>  (438) 
False

>  <uo_units>  (438) 
UO_0000065

>  <canonical_smiles>  (438) 
CC(C)n1nc(c2ccc3NC(=O)C=Cc3c2)c4c(N)ncnc14

>  <parent_molecule_chembl_id>  (438) 
CHEMBL1241863

>  <assay_type>  (438) 
B

>  <src_id>  (438) 
1

>  <ligand_efficiency>  (438) 
{u'le': u'0.25', u'bei': u'13.91', u'sei': u'4.51', u'lle': u'2.47'}

>  <standard_flag>  (438) 
True

>  <molecule_chembl_id>  (438) 
CHEMBL1241863

>  <target_organism>  (438) 
Homo sapiens

>  <standard_units>  (438) 
nM

>  <record_id>  (438) 
952796

>  <document_chembl_id>  (438) 
CHEMBL1240340

>  <bao_format>  (438) 
BAO_0000357

>  <data_validity_description>  (438) 
None

>  <activity_id>  (438) 
3444077

>  <standard_type>  (438) 
IC50

>  <target_chembl_id>  (438) 
CHEMBL1862

>  <data_validity_comment>  (438) 
None

>  <published_value>  (438) 
35

>  <document_year>  (438) 
2008

>  <target_pref_name>  (438) 
Tyrosine-protein kinase ABL

>  <assay_chembl_id>  (438) 
CHEMBL1243972

>  <standard_relation>  (438) 
=

>  <assay_description>  (438) 
Inhibition of recombinant c-Abl by radioactive phosphotransfer assay in presence of 10 uM ATP

>  <published_relation>  (438) 
=

>  <standard_value>  (438) 
35000

>  <qudt_units>  (438) 
http://www.openphacts.org/units/Nanomolar

>  <target_tax_id>  (438) 
9606

>  <bao_label>  (438) 
single protein format

>  <published_units>  (438) 
uM

>  <pchembl_value>  (438) 
4.46

>  <published_type>  (438) 
IC50

>  <activity_comment>  (438) 
None

$$$$

     RDKit          

 26 30  0  0  0  0  0  0  0  0999 V2000
    0.0000    0.0000    0.0000 N   0  0  0  0  0  0  0  0  0  0  0  0
    0.0000    0.0000    0.0000 C   0  0  0  0  0  0  0  0  0  0  0  0
    0.0000    0.0000    0.0000 N   0  0  0  0  0  0  0  0  0  0  0  0
    0.0000    0.0000    0.0000 C   0  0  0  0  0  0  0  0  0  0  0  0
    0.0000    0.0000    0.0000 N   0  0  0  0  0  0  0  0  0  0  0  0
    0.0000    0.0000    0.0000 C   0  0  0  0  0  0  0  0  0  0  0  0
    0.0000    0.0000    0.0000 C   0  0  0  0  0  0  0  0  0  0  0  0
    0.0000    0.0000    0.0000 C   0  0  0  0  0  0  0  0  0  0  0  0
    0.0000    0.0000    0.0000 N   0  0  0  0  0  0  0  0  0  0  0  0
    0.0000    0.0000    0.0000 N   0  0  0  0  0  0  0  0  0  0  0  0
    0.0000    0.0000    0.0000 C   0  0  0  0  0  0  0  0  0  0  0  0
    0.0000    0.0000    0.0000 C   0  0  0  0  0  0  0  0  0  0  0  0
    0.0000    0.0000    0.0000 C   0  0  0  0  0  0  0  0  0  0  0  0
    0.0000    0.0000    0.0000 C   0  0  0  0  0  0  0  0  0  0  0  0
    0.0000    0.0000    0.0000 C   0  0  0  0  0  0  0  0  0  0  0  0
    0.0000    0.0000    0.0000 C   0  0  0  0  0  0  0  0  0  0  0  0
    0.0000    0.0000    0.0000 C   0  0  0  0  0  0  0  0  0  0  0  0
    0.0000    0.0000    0.0000 C   0  0  0  0  0  0  0  0  0  0  0  0
    0.0000    0.0000    0.0000 C   0  0  0  0  0  0  0  0  0  0  0  0
    0.0000    0.0000    0.0000 N   0  0  0  0  0  0  0  0  0  0  0  0
    0.0000    0.0000    0.0000 C   0  0  0  0  0  0  0  0  0  0  0  0
    0.0000    0.0000    0.0000 O   0  0  0  0  0  0  0  0  0  0  0  0
    0.0000    0.0000    0.0000 C   0  0  0  0  0  0  0  0  0  0  0  0
    0.0000    0.0000    0.0000 C   0  0  0  0  0  0  0  0  0  0  0  0
    0.0000    0.0000    0.0000 C   0  0  0  0  0  0  0  0  0  0  0  0
    0.0000    0.0000    0.0000 C   0  0  0  0  0  0  0  0  0  0  0  0
  1  2  1  0
  2  3  2  0
  3  4  1  0
  4  5  2  0
  5  6  1  0
  6  7  2  0
  7  8  1  0
  8  9  2  0
  9 10  1  0
 10 11  1  0
 11 12  1  0
 12 13  1  0
 13 14  1  0
 14 15  1  0
  8 16  1  0
 16 17  2  0
 17 18  1  0
 18 19  2  0
 19 20  1  0
 20 21  1  0
 21 22  2  0
 21 23  1  0
 23 24  2  0
 24 25  1  0
 25 26  2  0
  7  2  1  0
 10  6  1  0
 15 11  1  0
 26 16  1  0
 25 19  1  0
M  END
>  <pIC50>  (439) 
4.0

>  <ChEMBL_ID>  (439) 
CHEMBL1241864

>  <document_journal>  (439) 
Nat. Chem. Biol.

>  <bao_endpoint>  (439) 
BAO_0000190

>  <potential_duplicate>  (439) 
False

>  <uo_units>  (439) 
UO_0000065

>  <canonical_smiles>  (439) 
Nc1ncnc2c1c(nn2C3CCCC3)c4ccc5NC(=O)C=Cc5c4

>  <parent_molecule_chembl_id>  (439) 
CHEMBL1241864

>  <assay_type>  (439) 
B

>  <src_id>  (439) 
1

>  <ligand_efficiency>  (439) 
{u'le': u'0.21', u'bei': u'11.55', u'sei': u'4.05', u'lle': u'1.34'}

>  <standard_flag>  (439) 
True

>  <molecule_chembl_id>  (439) 
CHEMBL1241864

>  <target_organism>  (439) 
Homo sapiens

>  <standard_units>  (439) 
nM

>  <record_id>  (439) 
952797

>  <document_chembl_id>  (439) 
CHEMBL1240340

>  <bao_format>  (439) 
BAO_0000357

>  <data_validity_description>  (439) 
None

>  <activity_id>  (439) 
3444091

>  <standard_type>  (439) 
IC50

>  <target_chembl_id>  (439) 
CHEMBL1862

>  <data_validity_comment>  (439) 
None

>  <published_value>  (439) 
100

>  <document_year>  (439) 
2008

>  <target_pref_name>  (439) 
Tyrosine-protein kinase ABL

>  <assay_chembl_id>  (439) 
CHEMBL1243972

>  <standard_relation>  (439) 
=

>  <assay_description>  (439) 
Inhibition of recombinant c-Abl by radioactive phosphotransfer assay in presence of 10 uM ATP

>  <published_relation>  (439) 
=

>  <standard_value>  (439) 
100000

>  <qudt_units>  (439) 
http://www.openphacts.org/units/Nanomolar

>  <target_tax_id>  (439) 
9606

>  <bao_label>  (439) 
single protein format

>  <published_units>  (439) 
uM

>  <pchembl_value>  (439) 
4

>  <published_type>  (439) 
IC50

>  <activity_comment>  (439) 
None

$$$$

     RDKit          

 24 27  0  0  0  0  0  0  0  0999 V2000
    0.0000    0.0000    0.0000 C   0  0  0  0  0  0  0  0  0  0  0  0
    0.0000    0.0000    0.0000 C   0  0  0  0  0  0  0  0  0  0  0  0
    0.0000    0.0000    0.0000 C   0  0  0  0  0  0  0  0  0  0  0  0
    0.0000    0.0000    0.0000 N   0  0  0  0  0  0  0  0  0  0  0  0
    0.0000    0.0000    0.0000 N   0  0  0  0  0  0  0  0  0  0  0  0
    0.0000    0.0000    0.0000 C   0  0  0  0  0  0  0  0  0  0  0  0
    0.0000    0.0000    0.0000 C   0  0  0  0  0  0  0  0  0  0  0  0
    0.0000    0.0000    0.0000 C   0  0  0  0  0  0  0  0  0  0  0  0
    0.0000    0.0000    0.0000 C   0  0  0  0  0  0  0  0  0  0  0  0
    0.0000    0.0000    0.0000 C   0  0  0  0  0  0  0  0  0  0  0  0
    0.0000    0.0000    0.0000 N   0  0  0  0  0  0  0  0  0  0  0  0
    0.0000    0.0000    0.0000 C   0  0  0  0  0  0  0  0  0  0  0  0
    0.0000    0.0000    0.0000 N   0  0  0  0  0  0  0  0  0  0  0  0
    0.0000    0.0000    0.0000 C   0  0  0  0  0  0  0  0  0  0  0  0
    0.0000    0.0000    0.0000 C   0  0  0  0  0  0  0  0  0  0  0  0
    0.0000    0.0000    0.0000 C   0  0  0  0  0  0  0  0  0  0  0  0
    0.0000    0.0000    0.0000 C   0  0  0  0  0  0  0  0  0  0  0  0
    0.0000    0.0000    0.0000 C   0  0  0  0  0  0  0  0  0  0  0  0
    0.0000    0.0000    0.0000 C   0  0  0  0  0  0  0  0  0  0  0  0
    0.0000    0.0000    0.0000 N   0  0  0  0  0  0  0  0  0  0  0  0
    0.0000    0.0000    0.0000 N   0  0  0  0  0  0  0  0  0  0  0  0
    0.0000    0.0000    0.0000 C   0  0  0  0  0  0  0  0  0  0  0  0
    0.0000    0.0000    0.0000 N   0  0  0  0  0  0  0  0  0  0  0  0
    0.0000    0.0000    0.0000 C   0  0  0  0  0  0  0  0  0  0  0  0
  1  2  1  0
  2  3  1  0
  2  4  1  0
  4  5  1  0
  5  6  2  0
  6  7  1  0
  7  8  2  0
  8  9  1  0
  9 10  2  0
 10 11  1  0
 11 12  2  0
 12 13  1  0
 12 14  1  0
 14 15  2  0
 15 16  1  0
 16 17  2  0
  6 18  1  0
 18 19  2  0
 19 20  1  0
 19 21  1  0
 21 22  2  0
 22 23  1  0
 23 24  2  0
 24  4  1  0
 17  7  1  0
 16 10  1  0
 24 18  1  0
M  END
>  <pIC50>  (440) 
5.7

>  <ChEMBL_ID>  (440) 
CHEMBL1241949

>  <document_journal>  (440) 
Nat. Chem. Biol.

>  <bao_endpoint>  (440) 
BAO_0000190

>  <potential_duplicate>  (440) 
False

>  <uo_units>  (440) 
UO_0000065

>  <canonical_smiles>  (440) 
CC(C)n1nc(c2ccc3nc(N)ccc3c2)c4c(N)ncnc14

>  <parent_molecule_chembl_id>  (440) 
CHEMBL1241949

>  <assay_type>  (440) 
B

>  <src_id>  (440) 
1

>  <ligand_efficiency>  (440) 
{u'le': u'0.32', u'bei': u'17.84', u'sei': u'5.25', u'lle': u'3.16'}

>  <standard_flag>  (440) 
True

>  <molecule_chembl_id>  (440) 
CHEMBL1241949

>  <target_organism>  (440) 
Homo sapiens

>  <standard_units>  (440) 
nM

>  <record_id>  (440) 
952928

>  <document_chembl_id>  (440) 
CHEMBL1240340

>  <bao_format>  (440) 
BAO_0000357

>  <data_validity_description>  (440) 
None

>  <activity_id>  (440) 
3444105

>  <standard_type>  (440) 
IC50

>  <target_chembl_id>  (440) 
CHEMBL1862

>  <data_validity_comment>  (440) 
None

>  <published_value>  (440) 
2

>  <document_year>  (440) 
2008

>  <target_pref_name>  (440) 
Tyrosine-protein kinase ABL

>  <assay_chembl_id>  (440) 
CHEMBL1243972

>  <standard_relation>  (440) 
=

>  <assay_description>  (440) 
Inhibition of recombinant c-Abl by radioactive phosphotransfer assay in presence of 10 uM ATP

>  <published_relation>  (440) 
=

>  <standard_value>  (440) 
2000

>  <qudt_units>  (440) 
http://www.openphacts.org/units/Nanomolar

>  <target_tax_id>  (440) 
9606

>  <bao_label>  (440) 
single protein format

>  <published_units>  (440) 
uM

>  <pchembl_value>  (440) 
5.7

>  <published_type>  (440) 
IC50

>  <activity_comment>  (440) 
None

$$$$

     RDKit          

 25 28  0  0  0  0  0  0  0  0999 V2000
    0.0000    0.0000    0.0000 C   0  0  0  0  0  0  0  0  0  0  0  0
    0.0000    0.0000    0.0000 C   0  0  0  0  0  0  0  0  0  0  0  0
    0.0000    0.0000    0.0000 C   0  0  0  0  0  0  0  0  0  0  0  0
    0.0000    0.0000    0.0000 N   0  0  0  0  0  0  0  0  0  0  0  0
    0.0000    0.0000    0.0000 N   0  0  0  0  0  0  0  0  0  0  0  0
    0.0000    0.0000    0.0000 C   0  0  0  0  0  0  0  0  0  0  0  0
    0.0000    0.0000    0.0000 C   0  0  0  0  0  0  0  0  0  0  0  0
    0.0000    0.0000    0.0000 C   0  0  0  0  0  0  0  0  0  0  0  0
    0.0000    0.0000    0.0000 C   0  0  0  0  0  0  0  0  0  0  0  0
    0.0000    0.0000    0.0000 C   0  0  0  0  0  0  0  0  0  0  0  0
    0.0000    0.0000    0.0000 N   0  0  0  0  0  0  0  0  0  0  0  0
    0.0000    0.0000    0.0000 C   0  0  0  0  0  0  0  0  0  0  0  0
    0.0000    0.0000    0.0000 N   0  0  0  0  0  0  0  0  0  0  0  0
    0.0000    0.0000    0.0000 N   0  0  0  0  0  0  0  0  0  0  0  0
    0.0000    0.0000    0.0000 C   0  0  0  0  0  0  0  0  0  0  0  0
    0.0000    0.0000    0.0000 C   0  0  0  0  0  0  0  0  0  0  0  0
    0.0000    0.0000    0.0000 C   0  0  0  0  0  0  0  0  0  0  0  0
    0.0000    0.0000    0.0000 C   0  0  0  0  0  0  0  0  0  0  0  0
    0.0000    0.0000    0.0000 C   0  0  0  0  0  0  0  0  0  0  0  0
    0.0000    0.0000    0.0000 C   0  0  0  0  0  0  0  0  0  0  0  0
    0.0000    0.0000    0.0000 N   0  0  0  0  0  0  0  0  0  0  0  0
    0.0000    0.0000    0.0000 N   0  0  0  0  0  0  0  0  0  0  0  0
    0.0000    0.0000    0.0000 C   0  0  0  0  0  0  0  0  0  0  0  0
    0.0000    0.0000    0.0000 N   0  0  0  0  0  0  0  0  0  0  0  0
    0.0000    0.0000    0.0000 C   0  0  0  0  0  0  0  0  0  0  0  0
  1  2  1  0
  2  3  1  0
  2  4  1  0
  4  5  1  0
  5  6  2  0
  6  7  1  0
  7  8  2  0
  8  9  1  0
  9 10  2  0
 10 11  1  0
 11 12  2  0
 12 13  1  0
 13 14  1  0
 12 15  1  0
 15 16  2  0
 16 17  1  0
 17 18  2  0
  6 19  1  0
 19 20  2  0
 20 21  1  0
 20 22  1  0
 22 23  2  0
 23 24  1  0
 24 25  2  0
 25  4  1  0
 18  7  1  0
 17 10  1  0
 25 19  1  0
M  END
>  <pIC50>  (441) 
5.52

>  <ChEMBL_ID>  (441) 
CHEMBL1241950

>  <document_journal>  (441) 
Nat. Chem. Biol.

>  <bao_endpoint>  (441) 
BAO_0000190

>  <potential_duplicate>  (441) 
False

>  <uo_units>  (441) 
UO_0000065

>  <canonical_smiles>  (441) 
CC(C)n1nc(c2ccc3nc(NN)ccc3c2)c4c(N)ncnc14

>  <parent_molecule_chembl_id>  (441) 
CHEMBL1241950

>  <assay_type>  (441) 
B

>  <src_id>  (441) 
1

>  <ligand_efficiency>  (441) 
{u'le': u'0.3', u'bei': u'16.52', u'sei': u'4.58', u'lle': u'2.95'}

>  <standard_flag>  (441) 
True

>  <molecule_chembl_id>  (441) 
CHEMBL1241950

>  <target_organism>  (441) 
Homo sapiens

>  <standard_units>  (441) 
nM

>  <record_id>  (441) 
952929

>  <document_chembl_id>  (441) 
CHEMBL1240340

>  <bao_format>  (441) 
BAO_0000357

>  <data_validity_description>  (441) 
None

>  <activity_id>  (441) 
3444119

>  <standard_type>  (441) 
IC50

>  <target_chembl_id>  (441) 
CHEMBL1862

>  <data_validity_comment>  (441) 
None

>  <published_value>  (441) 
3

>  <document_year>  (441) 
2008

>  <target_pref_name>  (441) 
Tyrosine-protein kinase ABL

>  <assay_chembl_id>  (441) 
CHEMBL1243972

>  <standard_relation>  (441) 
=

>  <assay_description>  (441) 
Inhibition of recombinant c-Abl by radioactive phosphotransfer assay in presence of 10 uM ATP

>  <published_relation>  (441) 
=

>  <standard_value>  (441) 
3000

>  <qudt_units>  (441) 
http://www.openphacts.org/units/Nanomolar

>  <target_tax_id>  (441) 
9606

>  <bao_label>  (441) 
single protein format

>  <published_units>  (441) 
uM

>  <pchembl_value>  (441) 
5.52

>  <published_type>  (441) 
IC50

>  <activity_comment>  (441) 
None

$$$$

     RDKit          

 31 34  0  0  0  0  0  0  0  0999 V2000
    0.0000    0.0000    0.0000 C   0  0  0  0  0  0  0  0  0  0  0  0
    0.0000    0.0000    0.0000 C   0  0  0  0  0  0  0  0  0  0  0  0
    0.0000    0.0000    0.0000 C   0  0  0  0  0  0  0  0  0  0  0  0
    0.0000    0.0000    0.0000 N   0  0  0  0  0  0  0  0  0  0  0  0
    0.0000    0.0000    0.0000 N   0  0  0  0  0  0  0  0  0  0  0  0
    0.0000    0.0000    0.0000 C   0  0  0  0  0  0  0  0  0  0  0  0
    0.0000    0.0000    0.0000 C   0  0  0  0  0  0  0  0  0  0  0  0
    0.0000    0.0000    0.0000 C   0  0  0  0  0  0  0  0  0  0  0  0
    0.0000    0.0000    0.0000 C   0  0  0  0  0  0  0  0  0  0  0  0
    0.0000    0.0000    0.0000 C   0  0  0  0  0  0  0  0  0  0  0  0
    0.0000    0.0000    0.0000 N   0  0  0  0  0  0  0  0  0  0  0  0
    0.0000    0.0000    0.0000 C   0  0  0  0  0  0  0  0  0  0  0  0
    0.0000    0.0000    0.0000 C   0  0  0  0  0  0  0  0  0  0  0  0
    0.0000    0.0000    0.0000 C   0  0  0  0  0  0  0  0  0  0  0  0
    0.0000    0.0000    0.0000 N   0  0  0  0  0  0  0  0  0  0  0  0
    0.0000    0.0000    0.0000 C   0  0  0  0  0  0  0  0  0  0  0  0
    0.0000    0.0000    0.0000 O   0  0  0  0  0  0  0  0  0  0  0  0
    0.0000    0.0000    0.0000 O   0  0  0  0  0  0  0  0  0  0  0  0
    0.0000    0.0000    0.0000 C   0  0  0  0  0  0  0  0  0  0  0  0
    0.0000    0.0000    0.0000 C   0  0  0  0  0  0  0  0  0  0  0  0
    0.0000    0.0000    0.0000 C   0  0  0  0  0  0  0  0  0  0  0  0
    0.0000    0.0000    0.0000 C   0  0  0  0  0  0  0  0  0  0  0  0
    0.0000    0.0000    0.0000 C   0  0  0  0  0  0  0  0  0  0  0  0
    0.0000    0.0000    0.0000 C   0  0  0  0  0  0  0  0  0  0  0  0
    0.0000    0.0000    0.0000 C   0  0  0  0  0  0  0  0  0  0  0  0
    0.0000    0.0000    0.0000 C   0  0  0  0  0  0  0  0  0  0  0  0
    0.0000    0.0000    0.0000 N   0  0  0  0  0  0  0  0  0  0  0  0
    0.0000    0.0000    0.0000 N   0  0  0  0  0  0  0  0  0  0  0  0
    0.0000    0.0000    0.0000 C   0  0  0  0  0  0  0  0  0  0  0  0
    0.0000    0.0000    0.0000 N   0  0  0  0  0  0  0  0  0  0  0  0
    0.0000    0.0000    0.0000 C   0  0  0  0  0  0  0  0  0  0  0  0
  1  2  1  0
  2  3  1  0
  2  4  1  0
  4  5  1  0
  5  6  2  0
  6  7  1  0
  7  8  2  0
  8  9  1  0
  9 10  2  0
 10 11  1  0
 11 12  2  0
 12 13  1  0
 13 14  2  0
 14 15  1  0
 15 16  1  0
 16 17  2  0
 16 18  1  0
 18 19  1  0
 19 20  1  0
 19 21  1  0
 19 22  1  0
 14 23  1  0
 23 24  2  0
  6 25  1  0
 25 26  2  0
 26 27  1  0
 26 28  1  0
 28 29  2  0
 29 30  1  0
 30 31  2  0
 31  4  1  0
 24  7  1  0
 23 10  1  0
 31 25  1  0
M  END
>  <pIC50>  (442) 
4.19

>  <ChEMBL_ID>  (442) 
CHEMBL1242033

>  <document_journal>  (442) 
Nat. Chem. Biol.

>  <bao_endpoint>  (442) 
BAO_0000190

>  <potential_duplicate>  (442) 
False

>  <uo_units>  (442) 
UO_0000065

>  <canonical_smiles>  (442) 
CC(C)n1nc(c2ccc3nccc(NC(=O)OC(C)(C)C)c3c2)c4c(N)ncnc14

>  <parent_molecule_chembl_id>  (442) 
CHEMBL1242033

>  <assay_type>  (442) 
B

>  <src_id>  (442) 
1

>  <ligand_efficiency>  (442) 
{u'le': u'0.18', u'bei': u'9.98', u'sei': u'3.46', u'lle': u'0.74'}

>  <standard_flag>  (442) 
True

>  <molecule_chembl_id>  (442) 
CHEMBL1242033

>  <target_organism>  (442) 
Homo sapiens

>  <standard_units>  (442) 
nM

>  <record_id>  (442) 
953060

>  <document_chembl_id>  (442) 
CHEMBL1240340

>  <bao_format>  (442) 
BAO_0000357

>  <data_validity_description>  (442) 
None

>  <activity_id>  (442) 
3444133

>  <standard_type>  (442) 
IC50

>  <target_chembl_id>  (442) 
CHEMBL1862

>  <data_validity_comment>  (442) 
None

>  <published_value>  (442) 
65

>  <document_year>  (442) 
2008

>  <target_pref_name>  (442) 
Tyrosine-protein kinase ABL

>  <assay_chembl_id>  (442) 
CHEMBL1243972

>  <standard_relation>  (442) 
=

>  <assay_description>  (442) 
Inhibition of recombinant c-Abl by radioactive phosphotransfer assay in presence of 10 uM ATP

>  <published_relation>  (442) 
=

>  <standard_value>  (442) 
65000

>  <qudt_units>  (442) 
http://www.openphacts.org/units/Nanomolar

>  <target_tax_id>  (442) 
9606

>  <bao_label>  (442) 
single protein format

>  <published_units>  (442) 
uM

>  <pchembl_value>  (442) 
4.19

>  <published_type>  (442) 
IC50

>  <activity_comment>  (442) 
None

$$$$

     RDKit          

 24 27  0  0  0  0  0  0  0  0999 V2000
    0.0000    0.0000    0.0000 C   0  0  0  0  0  0  0  0  0  0  0  0
    0.0000    0.0000    0.0000 C   0  0  0  0  0  0  0  0  0  0  0  0
    0.0000    0.0000    0.0000 C   0  0  0  0  0  0  0  0  0  0  0  0
    0.0000    0.0000    0.0000 N   0  0  0  0  0  0  0  0  0  0  0  0
    0.0000    0.0000    0.0000 N   0  0  0  0  0  0  0  0  0  0  0  0
    0.0000    0.0000    0.0000 C   0  0  0  0  0  0  0  0  0  0  0  0
    0.0000    0.0000    0.0000 C   0  0  0  0  0  0  0  0  0  0  0  0
    0.0000    0.0000    0.0000 C   0  0  0  0  0  0  0  0  0  0  0  0
    0.0000    0.0000    0.0000 C   0  0  0  0  0  0  0  0  0  0  0  0
    0.0000    0.0000    0.0000 C   0  0  0  0  0  0  0  0  0  0  0  0
    0.0000    0.0000    0.0000 N   0  0  0  0  0  0  0  0  0  0  0  0
    0.0000    0.0000    0.0000 C   0  0  0  0  0  0  0  0  0  0  0  0
    0.0000    0.0000    0.0000 C   0  0  0  0  0  0  0  0  0  0  0  0
    0.0000    0.0000    0.0000 C   0  0  0  0  0  0  0  0  0  0  0  0
    0.0000    0.0000    0.0000 N   0  0  0  0  0  0  0  0  0  0  0  0
    0.0000    0.0000    0.0000 C   0  0  0  0  0  0  0  0  0  0  0  0
    0.0000    0.0000    0.0000 C   0  0  0  0  0  0  0  0  0  0  0  0
    0.0000    0.0000    0.0000 C   0  0  0  0  0  0  0  0  0  0  0  0
    0.0000    0.0000    0.0000 C   0  0  0  0  0  0  0  0  0  0  0  0
    0.0000    0.0000    0.0000 N   0  0  0  0  0  0  0  0  0  0  0  0
    0.0000    0.0000    0.0000 N   0  0  0  0  0  0  0  0  0  0  0  0
    0.0000    0.0000    0.0000 C   0  0  0  0  0  0  0  0  0  0  0  0
    0.0000    0.0000    0.0000 N   0  0  0  0  0  0  0  0  0  0  0  0
    0.0000    0.0000    0.0000 C   0  0  0  0  0  0  0  0  0  0  0  0
  1  2  1  0
  2  3  1  0
  2  4  1  0
  4  5  1  0
  5  6  2  0
  6  7  1  0
  7  8  2  0
  8  9  1  0
  9 10  2  0
 10 11  1  0
 11 12  2  0
 12 13  1  0
 13 14  2  0
 14 15  1  0
 14 16  1  0
 16 17  2  0
  6 18  1  0
 18 19  2  0
 19 20  1  0
 19 21  1  0
 21 22  2  0
 22 23  1  0
 23 24  2  0
 24  4  1  0
 17  7  1  0
 16 10  1  0
 24 18  1  0
M  END
>  <pIC50>  (443) 
5.19

>  <ChEMBL_ID>  (443) 
CHEMBL1242034

>  <document_journal>  (443) 
Nat. Chem. Biol.

>  <bao_endpoint>  (443) 
BAO_0000190

>  <potential_duplicate>  (443) 
False

>  <uo_units>  (443) 
UO_0000065

>  <canonical_smiles>  (443) 
CC(C)n1nc(c2ccc3nccc(N)c3c2)c4c(N)ncnc14

>  <parent_molecule_chembl_id>  (443) 
CHEMBL1242034

>  <assay_type>  (443) 
B

>  <src_id>  (443) 
1

>  <ligand_efficiency>  (443) 
{u'le': u'0.3', u'bei': u'16.26', u'sei': u'4.79', u'lle': u'3.18'}

>  <standard_flag>  (443) 
True

>  <molecule_chembl_id>  (443) 
CHEMBL1242034

>  <target_organism>  (443) 
Homo sapiens

>  <standard_units>  (443) 
nM

>  <record_id>  (443) 
953061

>  <document_chembl_id>  (443) 
CHEMBL1240340

>  <bao_format>  (443) 
BAO_0000357

>  <data_validity_description>  (443) 
None

>  <activity_id>  (443) 
3444147

>  <standard_type>  (443) 
IC50

>  <target_chembl_id>  (443) 
CHEMBL1862

>  <data_validity_comment>  (443) 
None

>  <published_value>  (443) 
6.4

>  <document_year>  (443) 
2008

>  <target_pref_name>  (443) 
Tyrosine-protein kinase ABL

>  <assay_chembl_id>  (443) 
CHEMBL1243972

>  <standard_relation>  (443) 
=

>  <assay_description>  (443) 
Inhibition of recombinant c-Abl by radioactive phosphotransfer assay in presence of 10 uM ATP

>  <published_relation>  (443) 
=

>  <standard_value>  (443) 
6400

>  <qudt_units>  (443) 
http://www.openphacts.org/units/Nanomolar

>  <target_tax_id>  (443) 
9606

>  <bao_label>  (443) 
single protein format

>  <published_units>  (443) 
uM

>  <pchembl_value>  (443) 
5.19

>  <published_type>  (443) 
IC50

>  <activity_comment>  (443) 
None

$$$$

     RDKit          

 22 25  0  0  0  0  0  0  0  0999 V2000
    0.0000    0.0000    0.0000 C   0  0  0  0  0  0  0  0  0  0  0  0
    0.0000    0.0000    0.0000 N   0  0  0  0  0  0  0  0  0  0  0  0
    0.0000    0.0000    0.0000 N   0  0  0  0  0  0  0  0  0  0  0  0
    0.0000    0.0000    0.0000 C   0  0  0  0  0  0  0  0  0  0  0  0
    0.0000    0.0000    0.0000 C   0  0  0  0  0  0  0  0  0  0  0  0
    0.0000    0.0000    0.0000 C   0  0  0  0  0  0  0  0  0  0  0  0
    0.0000    0.0000    0.0000 C   0  0  0  0  0  0  0  0  0  0  0  0
    0.0000    0.0000    0.0000 C   0  0  0  0  0  0  0  0  0  0  0  0
    0.0000    0.0000    0.0000 O   0  0  0  0  0  0  0  0  0  0  0  0
    0.0000    0.0000    0.0000 C   0  0  0  0  0  0  0  0  0  0  0  0
    0.0000    0.0000    0.0000 C   0  0  0  0  0  0  0  0  0  0  0  0
    0.0000    0.0000    0.0000 C   0  0  0  0  0  0  0  0  0  0  0  0
    0.0000    0.0000    0.0000 O   0  0  0  0  0  0  0  0  0  0  0  0
    0.0000    0.0000    0.0000 C   0  0  0  0  0  0  0  0  0  0  0  0
    0.0000    0.0000    0.0000 C   0  0  0  0  0  0  0  0  0  0  0  0
    0.0000    0.0000    0.0000 C   0  0  0  0  0  0  0  0  0  0  0  0
    0.0000    0.0000    0.0000 C   0  0  0  0  0  0  0  0  0  0  0  0
    0.0000    0.0000    0.0000 N   0  0  0  0  0  0  0  0  0  0  0  0
    0.0000    0.0000    0.0000 N   0  0  0  0  0  0  0  0  0  0  0  0
    0.0000    0.0000    0.0000 C   0  0  0  0  0  0  0  0  0  0  0  0
    0.0000    0.0000    0.0000 N   0  0  0  0  0  0  0  0  0  0  0  0
    0.0000    0.0000    0.0000 C   0  0  0  0  0  0  0  0  0  0  0  0
  1  2  1  0
  2  3  1  0
  3  4  2  0
  4  5  1  0
  5  6  2  0
  6  7  1  0
  7  8  2  0
  8  9  1  0
  9 10  1  0
 10 11  2  0
 11 12  1  0
 12 13  2  0
 12 14  1  0
 14 15  2  0
  4 16  1  0
 16 17  2  0
 17 18  1  0
 17 19  1  0
 19 20  2  0
 20 21  1  0
 21 22  2  0
 22  2  1  0
 15  5  1  0
 14  8  1  0
 22 16  1  0
M  END
>  <pIC50>  (444) 
4.0

>  <ChEMBL_ID>  (444) 
CHEMBL1242117

>  <document_journal>  (444) 
Nat. Chem. Biol.

>  <bao_endpoint>  (444) 
BAO_0000190

>  <potential_duplicate>  (444) 
False

>  <uo_units>  (444) 
UO_0000065

>  <canonical_smiles>  (444) 
Cn1nc(c2ccc3OC=CC(=O)c3c2)c4c(N)ncnc14

>  <parent_molecule_chembl_id>  (444) 
CHEMBL1242117

>  <assay_type>  (444) 
B

>  <src_id>  (444) 
1

>  <ligand_efficiency>  (444) 
{u'le': u'0.25', u'bei': u'13.64', u'sei': u'4.17', u'lle': u'2.6'}

>  <standard_flag>  (444) 
True

>  <molecule_chembl_id>  (444) 
CHEMBL1242117

>  <target_organism>  (444) 
Homo sapiens

>  <standard_units>  (444) 
nM

>  <record_id>  (444) 
953188

>  <document_chembl_id>  (444) 
CHEMBL1240340

>  <bao_format>  (444) 
BAO_0000357

>  <data_validity_description>  (444) 
None

>  <activity_id>  (444) 
3444161

>  <standard_type>  (444) 
IC50

>  <target_chembl_id>  (444) 
CHEMBL1862

>  <data_validity_comment>  (444) 
None

>  <published_value>  (444) 
100

>  <document_year>  (444) 
2008

>  <target_pref_name>  (444) 
Tyrosine-protein kinase ABL

>  <assay_chembl_id>  (444) 
CHEMBL1243972

>  <standard_relation>  (444) 
=

>  <assay_description>  (444) 
Inhibition of recombinant c-Abl by radioactive phosphotransfer assay in presence of 10 uM ATP

>  <published_relation>  (444) 
=

>  <standard_value>  (444) 
100000

>  <qudt_units>  (444) 
http://www.openphacts.org/units/Nanomolar

>  <target_tax_id>  (444) 
9606

>  <bao_label>  (444) 
single protein format

>  <published_units>  (444) 
uM

>  <pchembl_value>  (444) 
4

>  <published_type>  (444) 
IC50

>  <activity_comment>  (444) 
None

$$$$

     RDKit          

 24 27  0  0  0  0  0  0  0  0999 V2000
    0.0000    0.0000    0.0000 C   0  0  0  0  0  0  0  0  0  0  0  0
    0.0000    0.0000    0.0000 C   0  0  0  0  0  0  0  0  0  0  0  0
    0.0000    0.0000    0.0000 C   0  0  0  0  0  0  0  0  0  0  0  0
    0.0000    0.0000    0.0000 N   0  0  0  0  0  0  0  0  0  0  0  0
    0.0000    0.0000    0.0000 N   0  0  0  0  0  0  0  0  0  0  0  0
    0.0000    0.0000    0.0000 C   0  0  0  0  0  0  0  0  0  0  0  0
    0.0000    0.0000    0.0000 C   0  0  0  0  0  0  0  0  0  0  0  0
    0.0000    0.0000    0.0000 C   0  0  0  0  0  0  0  0  0  0  0  0
    0.0000    0.0000    0.0000 C   0  0  0  0  0  0  0  0  0  0  0  0
    0.0000    0.0000    0.0000 C   0  0  0  0  0  0  0  0  0  0  0  0
    0.0000    0.0000    0.0000 O   0  0  0  0  0  0  0  0  0  0  0  0
    0.0000    0.0000    0.0000 C   0  0  0  0  0  0  0  0  0  0  0  0
    0.0000    0.0000    0.0000 C   0  0  0  0  0  0  0  0  0  0  0  0
    0.0000    0.0000    0.0000 C   0  0  0  0  0  0  0  0  0  0  0  0
    0.0000    0.0000    0.0000 O   0  0  0  0  0  0  0  0  0  0  0  0
    0.0000    0.0000    0.0000 C   0  0  0  0  0  0  0  0  0  0  0  0
    0.0000    0.0000    0.0000 C   0  0  0  0  0  0  0  0  0  0  0  0
    0.0000    0.0000    0.0000 C   0  0  0  0  0  0  0  0  0  0  0  0
    0.0000    0.0000    0.0000 C   0  0  0  0  0  0  0  0  0  0  0  0
    0.0000    0.0000    0.0000 N   0  0  0  0  0  0  0  0  0  0  0  0
    0.0000    0.0000    0.0000 N   0  0  0  0  0  0  0  0  0  0  0  0
    0.0000    0.0000    0.0000 C   0  0  0  0  0  0  0  0  0  0  0  0
    0.0000    0.0000    0.0000 N   0  0  0  0  0  0  0  0  0  0  0  0
    0.0000    0.0000    0.0000 C   0  0  0  0  0  0  0  0  0  0  0  0
  1  2  1  0
  2  3  1  0
  2  4  1  0
  4  5  1  0
  5  6  2  0
  6  7  1  0
  7  8  2  0
  8  9  1  0
  9 10  2  0
 10 11  1  0
 11 12  1  0
 12 13  2  0
 13 14  1  0
 14 15  2  0
 14 16  1  0
 16 17  2  0
  6 18  1  0
 18 19  2  0
 19 20  1  0
 19 21  1  0
 21 22  2  0
 22 23  1  0
 23 24  2  0
 24  4  1  0
 17  7  1  0
 16 10  1  0
 24 18  1  0
M  END
>  <pIC50>  (445) 
5.66

>  <ChEMBL_ID>  (445) 
CHEMBL1242118

>  <document_journal>  (445) 
Nat. Chem. Biol.

>  <bao_endpoint>  (445) 
BAO_0000190

>  <potential_duplicate>  (445) 
False

>  <uo_units>  (445) 
UO_0000065

>  <canonical_smiles>  (445) 
CC(C)n1nc(c2ccc3OC=CC(=O)c3c2)c4c(N)ncnc14

>  <parent_molecule_chembl_id>  (445) 
CHEMBL1242118

>  <assay_type>  (445) 
B

>  <src_id>  (445) 
1

>  <ligand_efficiency>  (445) 
{u'le': u'0.32', u'bei': u'17.61', u'sei': u'5.9', u'lle': u'3.54'}

>  <standard_flag>  (445) 
True

>  <molecule_chembl_id>  (445) 
CHEMBL1242118

>  <target_organism>  (445) 
Homo sapiens

>  <standard_units>  (445) 
nM

>  <record_id>  (445) 
953189

>  <document_chembl_id>  (445) 
CHEMBL1240340

>  <bao_format>  (445) 
BAO_0000357

>  <data_validity_description>  (445) 
None

>  <activity_id>  (445) 
3444175

>  <standard_type>  (445) 
IC50

>  <target_chembl_id>  (445) 
CHEMBL1862

>  <data_validity_comment>  (445) 
None

>  <published_value>  (445) 
2.2

>  <document_year>  (445) 
2008

>  <target_pref_name>  (445) 
Tyrosine-protein kinase ABL

>  <assay_chembl_id>  (445) 
CHEMBL1243972

>  <standard_relation>  (445) 
=

>  <assay_description>  (445) 
Inhibition of recombinant c-Abl by radioactive phosphotransfer assay in presence of 10 uM ATP

>  <published_relation>  (445) 
=

>  <standard_value>  (445) 
2200

>  <qudt_units>  (445) 
http://www.openphacts.org/units/Nanomolar

>  <target_tax_id>  (445) 
9606

>  <bao_label>  (445) 
single protein format

>  <published_units>  (445) 
uM

>  <pchembl_value>  (445) 
5.66

>  <published_type>  (445) 
IC50

>  <activity_comment>  (445) 
None

$$$$

     RDKit          

 26 30  0  0  0  0  0  0  0  0999 V2000
    0.0000    0.0000    0.0000 N   0  0  0  0  0  0  0  0  0  0  0  0
    0.0000    0.0000    0.0000 C   0  0  0  0  0  0  0  0  0  0  0  0
    0.0000    0.0000    0.0000 N   0  0  0  0  0  0  0  0  0  0  0  0
    0.0000    0.0000    0.0000 C   0  0  0  0  0  0  0  0  0  0  0  0
    0.0000    0.0000    0.0000 N   0  0  0  0  0  0  0  0  0  0  0  0
    0.0000    0.0000    0.0000 C   0  0  0  0  0  0  0  0  0  0  0  0
    0.0000    0.0000    0.0000 C   0  0  0  0  0  0  0  0  0  0  0  0
    0.0000    0.0000    0.0000 C   0  0  0  0  0  0  0  0  0  0  0  0
    0.0000    0.0000    0.0000 N   0  0  0  0  0  0  0  0  0  0  0  0
    0.0000    0.0000    0.0000 N   0  0  0  0  0  0  0  0  0  0  0  0
    0.0000    0.0000    0.0000 C   0  0  0  0  0  0  0  0  0  0  0  0
    0.0000    0.0000    0.0000 C   0  0  0  0  0  0  0  0  0  0  0  0
    0.0000    0.0000    0.0000 C   0  0  0  0  0  0  0  0  0  0  0  0
    0.0000    0.0000    0.0000 C   0  0  0  0  0  0  0  0  0  0  0  0
    0.0000    0.0000    0.0000 C   0  0  0  0  0  0  0  0  0  0  0  0
    0.0000    0.0000    0.0000 C   0  0  0  0  0  0  0  0  0  0  0  0
    0.0000    0.0000    0.0000 C   0  0  0  0  0  0  0  0  0  0  0  0
    0.0000    0.0000    0.0000 C   0  0  0  0  0  0  0  0  0  0  0  0
    0.0000    0.0000    0.0000 C   0  0  0  0  0  0  0  0  0  0  0  0
    0.0000    0.0000    0.0000 O   0  0  0  0  0  0  0  0  0  0  0  0
    0.0000    0.0000    0.0000 C   0  0  0  0  0  0  0  0  0  0  0  0
    0.0000    0.0000    0.0000 C   0  0  0  0  0  0  0  0  0  0  0  0
    0.0000    0.0000    0.0000 C   0  0  0  0  0  0  0  0  0  0  0  0
    0.0000    0.0000    0.0000 O   0  0  0  0  0  0  0  0  0  0  0  0
    0.0000    0.0000    0.0000 C   0  0  0  0  0  0  0  0  0  0  0  0
    0.0000    0.0000    0.0000 C   0  0  0  0  0  0  0  0  0  0  0  0
  1  2  1  0
  2  3  2  0
  3  4  1  0
  4  5  2  0
  5  6  1  0
  6  7  2  0
  7  8  1  0
  8  9  2  0
  9 10  1  0
 10 11  1  0
 11 12  1  0
 12 13  1  0
 13 14  1  0
 14 15  1  0
  8 16  1  0
 16 17  2  0
 17 18  1  0
 18 19  2  0
 19 20  1  0
 20 21  1  0
 21 22  2  0
 22 23  1  0
 23 24  2  0
 23 25  1  0
 25 26  2  0
  7  2  1  0
 10  6  1  0
 15 11  1  0
 26 16  1  0
 25 19  1  0
M  END
>  <pIC50>  (446) 
5.7

>  <ChEMBL_ID>  (446) 
CHEMBL1242119

>  <document_journal>  (446) 
Nat. Chem. Biol.

>  <bao_endpoint>  (446) 
BAO_0000190

>  <potential_duplicate>  (446) 
False

>  <uo_units>  (446) 
UO_0000065

>  <canonical_smiles>  (446) 
Nc1ncnc2c1c(nn2C3CCCC3)c4ccc5OC=CC(=O)c5c4

>  <parent_molecule_chembl_id>  (446) 
CHEMBL1242119

>  <assay_type>  (446) 
B

>  <src_id>  (446) 
1

>  <ligand_efficiency>  (446) 
{u'le': u'0.3', u'bei': u'16.41', u'sei': u'5.94', u'lle': u'2.9'}

>  <standard_flag>  (446) 
True

>  <molecule_chembl_id>  (446) 
CHEMBL1242119

>  <target_organism>  (446) 
Homo sapiens

>  <standard_units>  (446) 
nM

>  <record_id>  (446) 
953190

>  <document_chembl_id>  (446) 
CHEMBL1240340

>  <bao_format>  (446) 
BAO_0000357

>  <data_validity_description>  (446) 
None

>  <activity_id>  (446) 
3444189

>  <standard_type>  (446) 
IC50

>  <target_chembl_id>  (446) 
CHEMBL1862

>  <data_validity_comment>  (446) 
None

>  <published_value>  (446) 
2

>  <document_year>  (446) 
2008

>  <target_pref_name>  (446) 
Tyrosine-protein kinase ABL

>  <assay_chembl_id>  (446) 
CHEMBL1243972

>  <standard_relation>  (446) 
=

>  <assay_description>  (446) 
Inhibition of recombinant c-Abl by radioactive phosphotransfer assay in presence of 10 uM ATP

>  <published_relation>  (446) 
=

>  <standard_value>  (446) 
2000

>  <qudt_units>  (446) 
http://www.openphacts.org/units/Nanomolar

>  <target_tax_id>  (446) 
9606

>  <bao_label>  (446) 
single protein format

>  <published_units>  (446) 
uM

>  <pchembl_value>  (446) 
5.7

>  <published_type>  (446) 
IC50

>  <activity_comment>  (446) 
None

$$$$

     RDKit          

 23 26  0  0  0  0  0  0  0  0999 V2000
    0.0000    0.0000    0.0000 C   0  0  0  0  0  0  0  0  0  0  0  0
    0.0000    0.0000    0.0000 C   0  0  0  0  0  0  0  0  0  0  0  0
    0.0000    0.0000    0.0000 C   0  0  0  0  0  0  0  0  0  0  0  0
    0.0000    0.0000    0.0000 N   0  0  0  0  0  0  0  0  0  0  0  0
    0.0000    0.0000    0.0000 N   0  0  0  0  0  0  0  0  0  0  0  0
    0.0000    0.0000    0.0000 C   0  0  0  0  0  0  0  0  0  0  0  0
    0.0000    0.0000    0.0000 C   0  0  0  0  0  0  0  0  0  0  0  0
    0.0000    0.0000    0.0000 C   0  0  0  0  0  0  0  0  0  0  0  0
    0.0000    0.0000    0.0000 C   0  0  0  0  0  0  0  0  0  0  0  0
    0.0000    0.0000    0.0000 C   0  0  0  0  0  0  0  0  0  0  0  0
    0.0000    0.0000    0.0000 C   0  0  0  0  0  0  0  0  0  0  0  0
    0.0000    0.0000    0.0000 N   0  0  0  0  0  0  0  0  0  0  0  0
    0.0000    0.0000    0.0000 C   0  0  0  0  0  0  0  0  0  0  0  0
    0.0000    0.0000    0.0000 C   0  0  0  0  0  0  0  0  0  0  0  0
    0.0000    0.0000    0.0000 C   0  0  0  0  0  0  0  0  0  0  0  0
    0.0000    0.0000    0.0000 C   0  0  0  0  0  0  0  0  0  0  0  0
    0.0000    0.0000    0.0000 C   0  0  0  0  0  0  0  0  0  0  0  0
    0.0000    0.0000    0.0000 C   0  0  0  0  0  0  0  0  0  0  0  0
    0.0000    0.0000    0.0000 N   0  0  0  0  0  0  0  0  0  0  0  0
    0.0000    0.0000    0.0000 N   0  0  0  0  0  0  0  0  0  0  0  0
    0.0000    0.0000    0.0000 C   0  0  0  0  0  0  0  0  0  0  0  0
    0.0000    0.0000    0.0000 N   0  0  0  0  0  0  0  0  0  0  0  0
    0.0000    0.0000    0.0000 C   0  0  0  0  0  0  0  0  0  0  0  0
  1  2  1  0
  2  3  1  0
  2  4  1  0
  4  5  1  0
  5  6  2  0
  6  7  1  0
  7  8  2  0
  8  9  1  0
  9 10  2  0
 10 11  1  0
 11 12  2  0
 12 13  1  0
 13 14  2  0
 14 15  1  0
 15 16  2  0
  6 17  1  0
 17 18  2  0
 18 19  1  0
 18 20  1  0
 20 21  2  0
 21 22  1  0
 22 23  2  0
 23  4  1  0
 16  7  1  0
 15 10  1  0
 23 17  1  0
M  END
>  <pIC50>  (447) 
4.92

>  <ChEMBL_ID>  (447) 
CHEMBL1242207

>  <document_journal>  (447) 
Nat. Chem. Biol.

>  <bao_endpoint>  (447) 
BAO_0000190

>  <potential_duplicate>  (447) 
False

>  <uo_units>  (447) 
UO_0000065

>  <canonical_smiles>  (447) 
CC(C)n1nc(c2ccc3cnccc3c2)c4c(N)ncnc14

>  <parent_molecule_chembl_id>  (447) 
CHEMBL1242207

>  <assay_type>  (447) 
B

>  <src_id>  (447) 
1

>  <ligand_efficiency>  (447) 
{u'le': u'0.29', u'bei': u'16.17', u'sei': u'5.96', u'lle': u'2.6'}

>  <standard_flag>  (447) 
True

>  <molecule_chembl_id>  (447) 
CHEMBL1242207

>  <target_organism>  (447) 
Homo sapiens

>  <standard_units>  (447) 
nM

>  <record_id>  (447) 
953321

>  <document_chembl_id>  (447) 
CHEMBL1240340

>  <bao_format>  (447) 
BAO_0000357

>  <data_validity_description>  (447) 
None

>  <activity_id>  (447) 
3444203

>  <standard_type>  (447) 
IC50

>  <target_chembl_id>  (447) 
CHEMBL1862

>  <data_validity_comment>  (447) 
None

>  <published_value>  (447) 
12

>  <document_year>  (447) 
2008

>  <target_pref_name>  (447) 
Tyrosine-protein kinase ABL

>  <assay_chembl_id>  (447) 
CHEMBL1243972

>  <standard_relation>  (447) 
=

>  <assay_description>  (447) 
Inhibition of recombinant c-Abl by radioactive phosphotransfer assay in presence of 10 uM ATP

>  <published_relation>  (447) 
=

>  <standard_value>  (447) 
12000

>  <qudt_units>  (447) 
http://www.openphacts.org/units/Nanomolar

>  <target_tax_id>  (447) 
9606

>  <bao_label>  (447) 
single protein format

>  <published_units>  (447) 
uM

>  <pchembl_value>  (447) 
4.92

>  <published_type>  (447) 
IC50

>  <activity_comment>  (447) 
None

$$$$

     RDKit          

 23 26  0  0  0  0  0  0  0  0999 V2000
    0.0000    0.0000    0.0000 C   0  0  0  0  0  0  0  0  0  0  0  0
    0.0000    0.0000    0.0000 C   0  0  0  0  0  0  0  0  0  0  0  0
    0.0000    0.0000    0.0000 C   0  0  0  0  0  0  0  0  0  0  0  0
    0.0000    0.0000    0.0000 N   0  0  0  0  0  0  0  0  0  0  0  0
    0.0000    0.0000    0.0000 N   0  0  0  0  0  0  0  0  0  0  0  0
    0.0000    0.0000    0.0000 C   0  0  0  0  0  0  0  0  0  0  0  0
    0.0000    0.0000    0.0000 C   0  0  0  0  0  0  0  0  0  0  0  0
    0.0000    0.0000    0.0000 C   0  0  0  0  0  0  0  0  0  0  0  0
    0.0000    0.0000    0.0000 C   0  0  0  0  0  0  0  0  0  0  0  0
    0.0000    0.0000    0.0000 C   0  0  0  0  0  0  0  0  0  0  0  0
    0.0000    0.0000    0.0000 C   0  0  0  0  0  0  0  0  0  0  0  0
    0.0000    0.0000    0.0000 C   0  0  0  0  0  0  0  0  0  0  0  0
    0.0000    0.0000    0.0000 N   0  0  0  0  0  0  0  0  0  0  0  0
    0.0000    0.0000    0.0000 C   0  0  0  0  0  0  0  0  0  0  0  0
    0.0000    0.0000    0.0000 C   0  0  0  0  0  0  0  0  0  0  0  0
    0.0000    0.0000    0.0000 C   0  0  0  0  0  0  0  0  0  0  0  0
    0.0000    0.0000    0.0000 C   0  0  0  0  0  0  0  0  0  0  0  0
    0.0000    0.0000    0.0000 C   0  0  0  0  0  0  0  0  0  0  0  0
    0.0000    0.0000    0.0000 N   0  0  0  0  0  0  0  0  0  0  0  0
    0.0000    0.0000    0.0000 N   0  0  0  0  0  0  0  0  0  0  0  0
    0.0000    0.0000    0.0000 C   0  0  0  0  0  0  0  0  0  0  0  0
    0.0000    0.0000    0.0000 N   0  0  0  0  0  0  0  0  0  0  0  0
    0.0000    0.0000    0.0000 C   0  0  0  0  0  0  0  0  0  0  0  0
  1  2  1  0
  2  3  1  0
  2  4  1  0
  4  5  1  0
  5  6  2  0
  6  7  1  0
  7  8  2  0
  8  9  1  0
  9 10  2  0
 10 11  1  0
 11 12  2  0
 12 13  1  0
 13 14  2  0
 14 15  1  0
 15 16  2  0
  6 17  1  0
 17 18  2  0
 18 19  1  0
 18 20  1  0
 20 21  2  0
 21 22  1  0
 22 23  2  0
 23  4  1  0
 16  7  1  0
 15 10  1  0
 23 17  1  0
M  END
>  <pIC50>  (448) 
5.68

>  <ChEMBL_ID>  (448) 
CHEMBL1242208

>  <document_journal>  (448) 
Nat. Chem. Biol.

>  <bao_endpoint>  (448) 
BAO_0000190

>  <potential_duplicate>  (448) 
False

>  <uo_units>  (448) 
UO_0000065

>  <canonical_smiles>  (448) 
CC(C)n1nc(c2ccc3ccncc3c2)c4c(N)ncnc14

>  <parent_molecule_chembl_id>  (448) 
CHEMBL1242208

>  <assay_type>  (448) 
B

>  <src_id>  (448) 
1

>  <ligand_efficiency>  (448) 
{u'le': u'0.34', u'bei': u'18.66', u'sei': u'6.88', u'lle': u'3.36'}

>  <standard_flag>  (448) 
True

>  <molecule_chembl_id>  (448) 
CHEMBL1242208

>  <target_organism>  (448) 
Homo sapiens

>  <standard_units>  (448) 
nM

>  <record_id>  (448) 
953322

>  <document_chembl_id>  (448) 
CHEMBL1240340

>  <bao_format>  (448) 
BAO_0000357

>  <data_validity_description>  (448) 
None

>  <activity_id>  (448) 
3444217

>  <standard_type>  (448) 
IC50

>  <target_chembl_id>  (448) 
CHEMBL1862

>  <data_validity_comment>  (448) 
None

>  <published_value>  (448) 
2.1

>  <document_year>  (448) 
2008

>  <target_pref_name>  (448) 
Tyrosine-protein kinase ABL

>  <assay_chembl_id>  (448) 
CHEMBL1243972

>  <standard_relation>  (448) 
=

>  <assay_description>  (448) 
Inhibition of recombinant c-Abl by radioactive phosphotransfer assay in presence of 10 uM ATP

>  <published_relation>  (448) 
=

>  <standard_value>  (448) 
2100

>  <qudt_units>  (448) 
http://www.openphacts.org/units/Nanomolar

>  <target_tax_id>  (448) 
9606

>  <bao_label>  (448) 
single protein format

>  <published_units>  (448) 
uM

>  <pchembl_value>  (448) 
5.68

>  <published_type>  (448) 
IC50

>  <activity_comment>  (448) 
None

$$$$

     RDKit          

 24 27  0  0  0  0  0  0  0  0999 V2000
    0.0000    0.0000    0.0000 C   0  0  0  0  0  0  0  0  0  0  0  0
    0.0000    0.0000    0.0000 C   0  0  0  0  0  0  0  0  0  0  0  0
    0.0000    0.0000    0.0000 C   0  0  0  0  0  0  0  0  0  0  0  0
    0.0000    0.0000    0.0000 N   0  0  0  0  0  0  0  0  0  0  0  0
    0.0000    0.0000    0.0000 N   0  0  0  0  0  0  0  0  0  0  0  0
    0.0000    0.0000    0.0000 C   0  0  0  0  0  0  0  0  0  0  0  0
    0.0000    0.0000    0.0000 C   0  0  0  0  0  0  0  0  0  0  0  0
    0.0000    0.0000    0.0000 C   0  0  0  0  0  0  0  0  0  0  0  0
    0.0000    0.0000    0.0000 C   0  0  0  0  0  0  0  0  0  0  0  0
    0.0000    0.0000    0.0000 C   0  0  0  0  0  0  0  0  0  0  0  0
    0.0000    0.0000    0.0000 C   0  0  0  0  0  0  0  0  0  0  0  0
    0.0000    0.0000    0.0000 C   0  0  0  0  0  0  0  0  0  0  0  0
    0.0000    0.0000    0.0000 C   0  0  0  0  0  0  0  0  0  0  0  0
    0.0000    0.0000    0.0000 C   0  0  0  0  0  0  0  0  0  0  0  0
    0.0000    0.0000    0.0000 N   0  0  0  0  0  0  0  0  0  0  0  0
    0.0000    0.0000    0.0000 C   0  0  0  0  0  0  0  0  0  0  0  0
    0.0000    0.0000    0.0000 C   0  0  0  0  0  0  0  0  0  0  0  0
    0.0000    0.0000    0.0000 C   0  0  0  0  0  0  0  0  0  0  0  0
    0.0000    0.0000    0.0000 C   0  0  0  0  0  0  0  0  0  0  0  0
    0.0000    0.0000    0.0000 N   0  0  0  0  0  0  0  0  0  0  0  0
    0.0000    0.0000    0.0000 N   0  0  0  0  0  0  0  0  0  0  0  0
    0.0000    0.0000    0.0000 C   0  0  0  0  0  0  0  0  0  0  0  0
    0.0000    0.0000    0.0000 N   0  0  0  0  0  0  0  0  0  0  0  0
    0.0000    0.0000    0.0000 C   0  0  0  0  0  0  0  0  0  0  0  0
  1  2  1  0
  2  3  1  0
  2  4  1  0
  4  5  1  0
  5  6  2  0
  6  7  1  0
  7  8  2  0
  8  9  1  0
  9 10  2  0
 10 11  1  0
 11 12  2  0
 12 13  1  0
 13 14  1  0
 13 15  2  0
 15 16  1  0
 16 17  2  0
  6 18  1  0
 18 19  2  0
 19 20  1  0
 19 21  1  0
 21 22  2  0
 22 23  1  0
 23 24  2  0
 24  4  1  0
 17  7  1  0
 16 10  1  0
 24 18  1  0
M  END
>  <pIC50>  (449) 
5.37

>  <ChEMBL_ID>  (449) 
CHEMBL1242209

>  <document_journal>  (449) 
Nat. Chem. Biol.

>  <bao_endpoint>  (449) 
BAO_0000190

>  <potential_duplicate>  (449) 
False

>  <uo_units>  (449) 
UO_0000065

>  <canonical_smiles>  (449) 
CC(C)n1nc(c2ccc3ccc(C)nc3c2)c4c(N)ncnc14

>  <parent_molecule_chembl_id>  (449) 
CHEMBL1242209

>  <assay_type>  (449) 
B

>  <src_id>  (449) 
1

>  <ligand_efficiency>  (449) 
{u'le': u'0.31', u'bei': u'16.86', u'sei': u'6.5', u'lle': u'2.34'}

>  <standard_flag>  (449) 
True

>  <molecule_chembl_id>  (449) 
CHEMBL1242209

>  <target_organism>  (449) 
Homo sapiens

>  <standard_units>  (449) 
nM

>  <record_id>  (449) 
953323

>  <document_chembl_id>  (449) 
CHEMBL1240340

>  <bao_format>  (449) 
BAO_0000357

>  <data_validity_description>  (449) 
None

>  <activity_id>  (449) 
3444231

>  <standard_type>  (449) 
IC50

>  <target_chembl_id>  (449) 
CHEMBL1862

>  <data_validity_comment>  (449) 
None

>  <published_value>  (449) 
4.3

>  <document_year>  (449) 
2008

>  <target_pref_name>  (449) 
Tyrosine-protein kinase ABL

>  <assay_chembl_id>  (449) 
CHEMBL1243972

>  <standard_relation>  (449) 
=

>  <assay_description>  (449) 
Inhibition of recombinant c-Abl by radioactive phosphotransfer assay in presence of 10 uM ATP

>  <published_relation>  (449) 
=

>  <standard_value>  (449) 
4300

>  <qudt_units>  (449) 
http://www.openphacts.org/units/Nanomolar

>  <target_tax_id>  (449) 
9606

>  <bao_label>  (449) 
single protein format

>  <published_units>  (449) 
uM

>  <pchembl_value>  (449) 
5.37

>  <published_type>  (449) 
IC50

>  <activity_comment>  (449) 
None

$$$$

     RDKit          

 20 23  0  0  0  0  0  0  0  0999 V2000
    0.0000    0.0000    0.0000 C   0  0  0  0  0  0  0  0  0  0  0  0
    0.0000    0.0000    0.0000 N   0  0  0  0  0  0  0  0  0  0  0  0
    0.0000    0.0000    0.0000 N   0  0  0  0  0  0  0  0  0  0  0  0
    0.0000    0.0000    0.0000 C   0  0  0  0  0  0  0  0  0  0  0  0
    0.0000    0.0000    0.0000 C   0  0  0  0  0  0  0  0  0  0  0  0
    0.0000    0.0000    0.0000 C   0  0  0  0  0  0  0  0  0  0  0  0
    0.0000    0.0000    0.0000 N   0  0  0  0  0  0  0  0  0  0  0  0
    0.0000    0.0000    0.0000 C   0  0  0  0  0  0  0  0  0  0  0  0
    0.0000    0.0000    0.0000 N   0  0  0  0  0  0  0  0  0  0  0  0
    0.0000    0.0000    0.0000 C   0  0  0  0  0  0  0  0  0  0  0  0
    0.0000    0.0000    0.0000 C   0  0  0  0  0  0  0  0  0  0  0  0
    0.0000    0.0000    0.0000 C   0  0  0  0  0  0  0  0  0  0  0  0
    0.0000    0.0000    0.0000 C   0  0  0  0  0  0  0  0  0  0  0  0
    0.0000    0.0000    0.0000 C   0  0  0  0  0  0  0  0  0  0  0  0
    0.0000    0.0000    0.0000 C   0  0  0  0  0  0  0  0  0  0  0  0
    0.0000    0.0000    0.0000 N   0  0  0  0  0  0  0  0  0  0  0  0
    0.0000    0.0000    0.0000 N   0  0  0  0  0  0  0  0  0  0  0  0
    0.0000    0.0000    0.0000 C   0  0  0  0  0  0  0  0  0  0  0  0
    0.0000    0.0000    0.0000 N   0  0  0  0  0  0  0  0  0  0  0  0
    0.0000    0.0000    0.0000 C   0  0  0  0  0  0  0  0  0  0  0  0
  1  2  1  0
  2  3  1  0
  3  4  2  0
  4  5  1  0
  5  6  2  0
  6  7  1  0
  7  8  2  0
  8  9  1  0
  9 10  1  0
 10 11  2  0
 11 12  1  0
 12 13  2  0
  4 14  1  0
 14 15  2  0
 15 16  1  0
 15 17  1  0
 17 18  2  0
 18 19  1  0
 19 20  2  0
 20  2  1  0
 13  5  1  0
 12  8  1  0
 20 14  1  0
M  END
>  <pIC50>  (450) 
6.51

>  <ChEMBL_ID>  (450) 
CHEMBL1240565

>  <document_journal>  (450) 
Nat. Chem. Biol.

>  <bao_endpoint>  (450) 
BAO_0000190

>  <potential_duplicate>  (450) 
False

>  <uo_units>  (450) 
UO_0000065

>  <canonical_smiles>  (450) 
Cn1nc(c2cnc3[nH]ccc3c2)c4c(N)ncnc14

>  <parent_molecule_chembl_id>  (450) 
CHEMBL1240565

>  <assay_type>  (450) 
B

>  <src_id>  (450) 
1

>  <ligand_efficiency>  (450) 
{u'le': u'0.44', u'bei': u'24.54', u'sei': u'6.62', u'lle': u'5.33'}

>  <standard_flag>  (450) 
True

>  <molecule_chembl_id>  (450) 
CHEMBL1240565

>  <target_organism>  (450) 
Homo sapiens

>  <standard_units>  (450) 
nM

>  <record_id>  (450) 
950920

>  <document_chembl_id>  (450) 
CHEMBL1240340

>  <bao_format>  (450) 
BAO_0000357

>  <data_validity_description>  (450) 
None

>  <activity_id>  (450) 
3444245

>  <standard_type>  (450) 
IC50

>  <target_chembl_id>  (450) 
CHEMBL1862

>  <data_validity_comment>  (450) 
None

>  <published_value>  (450) 
0.31

>  <document_year>  (450) 
2008

>  <target_pref_name>  (450) 
Tyrosine-protein kinase ABL

>  <assay_chembl_id>  (450) 
CHEMBL1243972

>  <standard_relation>  (450) 
=

>  <assay_description>  (450) 
Inhibition of recombinant c-Abl by radioactive phosphotransfer assay in presence of 10 uM ATP

>  <published_relation>  (450) 
=

>  <standard_value>  (450) 
310

>  <qudt_units>  (450) 
http://www.openphacts.org/units/Nanomolar

>  <target_tax_id>  (450) 
9606

>  <bao_label>  (450) 
single protein format

>  <published_units>  (450) 
uM

>  <pchembl_value>  (450) 
6.51

>  <published_type>  (450) 
IC50

>  <activity_comment>  (450) 
None

$$$$

     RDKit          

 22 25  0  0  0  0  0  0  0  0999 V2000
    0.0000    0.0000    0.0000 C   0  0  0  0  0  0  0  0  0  0  0  0
    0.0000    0.0000    0.0000 C   0  0  0  0  0  0  0  0  0  0  0  0
    0.0000    0.0000    0.0000 C   0  0  0  0  0  0  0  0  0  0  0  0
    0.0000    0.0000    0.0000 N   0  0  0  0  0  0  0  0  0  0  0  0
    0.0000    0.0000    0.0000 N   0  0  0  0  0  0  0  0  0  0  0  0
    0.0000    0.0000    0.0000 C   0  0  0  0  0  0  0  0  0  0  0  0
    0.0000    0.0000    0.0000 C   0  0  0  0  0  0  0  0  0  0  0  0
    0.0000    0.0000    0.0000 C   0  0  0  0  0  0  0  0  0  0  0  0
    0.0000    0.0000    0.0000 N   0  0  0  0  0  0  0  0  0  0  0  0
    0.0000    0.0000    0.0000 C   0  0  0  0  0  0  0  0  0  0  0  0
    0.0000    0.0000    0.0000 N   0  0  0  0  0  0  0  0  0  0  0  0
    0.0000    0.0000    0.0000 C   0  0  0  0  0  0  0  0  0  0  0  0
    0.0000    0.0000    0.0000 C   0  0  0  0  0  0  0  0  0  0  0  0
    0.0000    0.0000    0.0000 C   0  0  0  0  0  0  0  0  0  0  0  0
    0.0000    0.0000    0.0000 C   0  0  0  0  0  0  0  0  0  0  0  0
    0.0000    0.0000    0.0000 C   0  0  0  0  0  0  0  0  0  0  0  0
    0.0000    0.0000    0.0000 C   0  0  0  0  0  0  0  0  0  0  0  0
    0.0000    0.0000    0.0000 N   0  0  0  0  0  0  0  0  0  0  0  0
    0.0000    0.0000    0.0000 N   0  0  0  0  0  0  0  0  0  0  0  0
    0.0000    0.0000    0.0000 C   0  0  0  0  0  0  0  0  0  0  0  0
    0.0000    0.0000    0.0000 N   0  0  0  0  0  0  0  0  0  0  0  0
    0.0000    0.0000    0.0000 C   0  0  0  0  0  0  0  0  0  0  0  0
  1  2  1  0
  2  3  1  0
  2  4  1  0
  4  5  1  0
  5  6  2  0
  6  7  1  0
  7  8  2  0
  8  9  1  0
  9 10  2  0
 10 11  1  0
 11 12  1  0
 12 13  2  0
 13 14  1  0
 14 15  2  0
  6 16  1  0
 16 17  2  0
 17 18  1  0
 17 19  1  0
 19 20  2  0
 20 21  1  0
 21 22  2  0
 22  4  1  0
 15  7  1  0
 14 10  1  0
 22 16  1  0
M  END
>  <pIC50>  (451) 
7.66

>  <ChEMBL_ID>  (451) 
CHEMBL1242293

>  <document_journal>  (451) 
Nat. Chem. Biol.

>  <bao_endpoint>  (451) 
BAO_0000190

>  <potential_duplicate>  (451) 
False

>  <uo_units>  (451) 
UO_0000065

>  <canonical_smiles>  (451) 
CC(C)n1nc(c2cnc3[nH]ccc3c2)c4c(N)ncnc14

>  <parent_molecule_chembl_id>  (451) 
CHEMBL1242293

>  <assay_type>  (451) 
B

>  <src_id>  (451) 
1

>  <ligand_efficiency>  (451) 
{u'le': u'0.48', u'bei': u'26.11', u'sei': u'7.79', u'lle': u'5.75'}

>  <standard_flag>  (451) 
True

>  <molecule_chembl_id>  (451) 
CHEMBL1242293

>  <target_organism>  (451) 
Homo sapiens

>  <standard_units>  (451) 
nM

>  <record_id>  (451) 
953452

>  <document_chembl_id>  (451) 
CHEMBL1240340

>  <bao_format>  (451) 
BAO_0000357

>  <data_validity_description>  (451) 
None

>  <activity_id>  (451) 
3444259

>  <standard_type>  (451) 
IC50

>  <target_chembl_id>  (451) 
CHEMBL1862

>  <data_validity_comment>  (451) 
None

>  <published_value>  (451) 
0.022

>  <document_year>  (451) 
2008

>  <target_pref_name>  (451) 
Tyrosine-protein kinase ABL

>  <assay_chembl_id>  (451) 
CHEMBL1243972

>  <standard_relation>  (451) 
=

>  <assay_description>  (451) 
Inhibition of recombinant c-Abl by radioactive phosphotransfer assay in presence of 10 uM ATP

>  <published_relation>  (451) 
=

>  <standard_value>  (451) 
22

>  <qudt_units>  (451) 
http://www.openphacts.org/units/Nanomolar

>  <target_tax_id>  (451) 
9606

>  <bao_label>  (451) 
single protein format

>  <published_units>  (451) 
uM

>  <pchembl_value>  (451) 
7.66

>  <published_type>  (451) 
IC50

>  <activity_comment>  (451) 
None

$$$$

     RDKit          

 22 25  0  0  0  0  0  0  0  0999 V2000
    0.0000    0.0000    0.0000 C   0  0  0  0  0  0  0  0  0  0  0  0
    0.0000    0.0000    0.0000 C   0  0  0  0  0  0  0  0  0  0  0  0
    0.0000    0.0000    0.0000 C   0  0  0  0  0  0  0  0  0  0  0  0
    0.0000    0.0000    0.0000 N   0  0  0  0  0  0  0  0  0  0  0  0
    0.0000    0.0000    0.0000 N   0  0  0  0  0  0  0  0  0  0  0  0
    0.0000    0.0000    0.0000 C   0  0  0  0  0  0  0  0  0  0  0  0
    0.0000    0.0000    0.0000 C   0  0  0  0  0  0  0  0  0  0  0  0
    0.0000    0.0000    0.0000 C   0  0  0  0  0  0  0  0  0  0  0  0
    0.0000    0.0000    0.0000 C   0  0  0  0  0  0  0  0  0  0  0  0
    0.0000    0.0000    0.0000 C   0  0  0  0  0  0  0  0  0  0  0  0
    0.0000    0.0000    0.0000 N   0  0  0  0  0  0  0  0  0  0  0  0
    0.0000    0.0000    0.0000 C   0  0  0  0  0  0  0  0  0  0  0  0
    0.0000    0.0000    0.0000 C   0  0  0  0  0  0  0  0  0  0  0  0
    0.0000    0.0000    0.0000 C   0  0  0  0  0  0  0  0  0  0  0  0
    0.0000    0.0000    0.0000 C   0  0  0  0  0  0  0  0  0  0  0  0
    0.0000    0.0000    0.0000 C   0  0  0  0  0  0  0  0  0  0  0  0
    0.0000    0.0000    0.0000 C   0  0  0  0  0  0  0  0  0  0  0  0
    0.0000    0.0000    0.0000 N   0  0  0  0  0  0  0  0  0  0  0  0
    0.0000    0.0000    0.0000 N   0  0  0  0  0  0  0  0  0  0  0  0
    0.0000    0.0000    0.0000 C   0  0  0  0  0  0  0  0  0  0  0  0
    0.0000    0.0000    0.0000 N   0  0  0  0  0  0  0  0  0  0  0  0
    0.0000    0.0000    0.0000 C   0  0  0  0  0  0  0  0  0  0  0  0
  1  2  1  0
  2  3  1  0
  2  4  1  0
  4  5  1  0
  5  6  2  0
  6  7  1  0
  7  8  2  0
  8  9  1  0
  9 10  2  0
 10 11  1  0
 11 12  1  0
 12 13  2  0
 13 14  1  0
 14 15  2  0
  6 16  1  0
 16 17  2  0
 17 18  1  0
 17 19  1  0
 19 20  2  0
 20 21  1  0
 21 22  2  0
 22  4  1  0
 15  7  1  0
 14 10  1  0
 22 16  1  0
M  END
>  <pIC50>  (452) 
6.53

>  <ChEMBL_ID>  (452) 
CHEMBL1242294

>  <document_journal>  (452) 
Nat. Chem. Biol.

>  <bao_endpoint>  (452) 
BAO_0000190

>  <potential_duplicate>  (452) 
False

>  <uo_units>  (452) 
UO_0000065

>  <canonical_smiles>  (452) 
CC(C)n1nc(c2ccc3[nH]ccc3c2)c4c(N)ncnc14

>  <parent_molecule_chembl_id>  (452) 
CHEMBL1242294

>  <assay_type>  (452) 
B

>  <src_id>  (452) 
1

>  <ligand_efficiency>  (452) 
{u'le': u'0.41', u'bei': u'22.34', u'sei': u'7.65', u'lle': u'3.67'}

>  <standard_flag>  (452) 
True

>  <molecule_chembl_id>  (452) 
CHEMBL1242294

>  <target_organism>  (452) 
Homo sapiens

>  <standard_units>  (452) 
nM

>  <record_id>  (452) 
953453

>  <document_chembl_id>  (452) 
CHEMBL1240340

>  <bao_format>  (452) 
BAO_0000357

>  <data_validity_description>  (452) 
None

>  <activity_id>  (452) 
3444273

>  <standard_type>  (452) 
IC50

>  <target_chembl_id>  (452) 
CHEMBL1862

>  <data_validity_comment>  (452) 
None

>  <published_value>  (452) 
0.295

>  <document_year>  (452) 
2008

>  <target_pref_name>  (452) 
Tyrosine-protein kinase ABL

>  <assay_chembl_id>  (452) 
CHEMBL1243972

>  <standard_relation>  (452) 
=

>  <assay_description>  (452) 
Inhibition of recombinant c-Abl by radioactive phosphotransfer assay in presence of 10 uM ATP

>  <published_relation>  (452) 
=

>  <standard_value>  (452) 
295

>  <qudt_units>  (452) 
http://www.openphacts.org/units/Nanomolar

>  <target_tax_id>  (452) 
9606

>  <bao_label>  (452) 
single protein format

>  <published_units>  (452) 
uM

>  <pchembl_value>  (452) 
6.53

>  <published_type>  (452) 
IC50

>  <activity_comment>  (452) 
None

$$$$

     RDKit          

 24 28  0  0  0  0  0  0  0  0999 V2000
    0.0000    0.0000    0.0000 N   0  0  0  0  0  0  0  0  0  0  0  0
    0.0000    0.0000    0.0000 C   0  0  0  0  0  0  0  0  0  0  0  0
    0.0000    0.0000    0.0000 N   0  0  0  0  0  0  0  0  0  0  0  0
    0.0000    0.0000    0.0000 C   0  0  0  0  0  0  0  0  0  0  0  0
    0.0000    0.0000    0.0000 N   0  0  0  0  0  0  0  0  0  0  0  0
    0.0000    0.0000    0.0000 C   0  0  0  0  0  0  0  0  0  0  0  0
    0.0000    0.0000    0.0000 C   0  0  0  0  0  0  0  0  0  0  0  0
    0.0000    0.0000    0.0000 C   0  0  0  0  0  0  0  0  0  0  0  0
    0.0000    0.0000    0.0000 N   0  0  0  0  0  0  0  0  0  0  0  0
    0.0000    0.0000    0.0000 N   0  0  0  0  0  0  0  0  0  0  0  0
    0.0000    0.0000    0.0000 C   0  0  0  0  0  0  0  0  0  0  0  0
    0.0000    0.0000    0.0000 C   0  0  0  0  0  0  0  0  0  0  0  0
    0.0000    0.0000    0.0000 C   0  0  0  0  0  0  0  0  0  0  0  0
    0.0000    0.0000    0.0000 C   0  0  0  0  0  0  0  0  0  0  0  0
    0.0000    0.0000    0.0000 C   0  0  0  0  0  0  0  0  0  0  0  0
    0.0000    0.0000    0.0000 C   0  0  0  0  0  0  0  0  0  0  0  0
    0.0000    0.0000    0.0000 C   0  0  0  0  0  0  0  0  0  0  0  0
    0.0000    0.0000    0.0000 C   0  0  0  0  0  0  0  0  0  0  0  0
    0.0000    0.0000    0.0000 C   0  0  0  0  0  0  0  0  0  0  0  0
    0.0000    0.0000    0.0000 N   0  0  0  0  0  0  0  0  0  0  0  0
    0.0000    0.0000    0.0000 C   0  0  0  0  0  0  0  0  0  0  0  0
    0.0000    0.0000    0.0000 C   0  0  0  0  0  0  0  0  0  0  0  0
    0.0000    0.0000    0.0000 C   0  0  0  0  0  0  0  0  0  0  0  0
    0.0000    0.0000    0.0000 C   0  0  0  0  0  0  0  0  0  0  0  0
  1  2  1  0
  2  3  2  0
  3  4  1  0
  4  5  2  0
  5  6  1  0
  6  7  2  0
  7  8  1  0
  8  9  2  0
  9 10  1  0
 10 11  1  0
 11 12  1  0
 12 13  1  0
 13 14  1  0
 14 15  1  0
  8 16  1  0
 16 17  2  0
 17 18  1  0
 18 19  2  0
 19 20  1  0
 20 21  1  0
 21 22  2  0
 22 23  1  0
 23 24  2  0
  7  2  1  0
 10  6  1  0
 15 11  1  0
 24 16  1  0
 23 19  1  0
M  END
>  <pIC50>  (453) 
6.63

>  <ChEMBL_ID>  (453) 
CHEMBL1242295

>  <document_journal>  (453) 
Nat. Chem. Biol.

>  <bao_endpoint>  (453) 
BAO_0000190

>  <potential_duplicate>  (453) 
False

>  <uo_units>  (453) 
UO_0000065

>  <canonical_smiles>  (453) 
Nc1ncnc2c1c(nn2C3CCCC3)c4ccc5[nH]ccc5c4

>  <parent_molecule_chembl_id>  (453) 
CHEMBL1242295

>  <assay_type>  (453) 
B

>  <src_id>  (453) 
1

>  <ligand_efficiency>  (453) 
{u'le': u'0.38', u'bei': u'20.83', u'sei': u'7.76', u'lle': u'3.09'}

>  <standard_flag>  (453) 
True

>  <molecule_chembl_id>  (453) 
CHEMBL1242295

>  <target_organism>  (453) 
Homo sapiens

>  <standard_units>  (453) 
nM

>  <record_id>  (453) 
953454

>  <document_chembl_id>  (453) 
CHEMBL1240340

>  <bao_format>  (453) 
BAO_0000357

>  <data_validity_description>  (453) 
None

>  <activity_id>  (453) 
3444287

>  <standard_type>  (453) 
IC50

>  <target_chembl_id>  (453) 
CHEMBL1862

>  <data_validity_comment>  (453) 
None

>  <published_value>  (453) 
0.234

>  <document_year>  (453) 
2008

>  <target_pref_name>  (453) 
Tyrosine-protein kinase ABL

>  <assay_chembl_id>  (453) 
CHEMBL1243972

>  <standard_relation>  (453) 
=

>  <assay_description>  (453) 
Inhibition of recombinant c-Abl by radioactive phosphotransfer assay in presence of 10 uM ATP

>  <published_relation>  (453) 
=

>  <standard_value>  (453) 
234

>  <qudt_units>  (453) 
http://www.openphacts.org/units/Nanomolar

>  <target_tax_id>  (453) 
9606

>  <bao_label>  (453) 
single protein format

>  <published_units>  (453) 
uM

>  <pchembl_value>  (453) 
6.63

>  <published_type>  (453) 
IC50

>  <activity_comment>  (453) 
None

$$$$

     RDKit          

 23 26  0  0  0  0  0  0  0  0999 V2000
    0.0000    0.0000    0.0000 C   0  0  0  0  0  0  0  0  0  0  0  0
    0.0000    0.0000    0.0000 C   0  0  0  0  0  0  0  0  0  0  0  0
    0.0000    0.0000    0.0000 C   0  0  0  0  0  0  0  0  0  0  0  0
    0.0000    0.0000    0.0000 N   0  0  0  0  0  0  0  0  0  0  0  0
    0.0000    0.0000    0.0000 N   0  0  0  0  0  0  0  0  0  0  0  0
    0.0000    0.0000    0.0000 C   0  0  0  0  0  0  0  0  0  0  0  0
    0.0000    0.0000    0.0000 C   0  0  0  0  0  0  0  0  0  0  0  0
    0.0000    0.0000    0.0000 C   0  0  0  0  0  0  0  0  0  0  0  0
    0.0000    0.0000    0.0000 C   0  0  0  0  0  0  0  0  0  0  0  0
    0.0000    0.0000    0.0000 C   0  0  0  0  0  0  0  0  0  0  0  0
    0.0000    0.0000    0.0000 C   0  0  0  0  0  0  0  0  0  0  0  0
    0.0000    0.0000    0.0000 C   0  0  0  0  0  0  0  0  0  0  0  0
    0.0000    0.0000    0.0000 C   0  0  0  0  0  0  0  0  0  0  0  0
    0.0000    0.0000    0.0000 N   0  0  0  0  0  0  0  0  0  0  0  0
    0.0000    0.0000    0.0000 C   0  0  0  0  0  0  0  0  0  0  0  0
    0.0000    0.0000    0.0000 C   0  0  0  0  0  0  0  0  0  0  0  0
    0.0000    0.0000    0.0000 C   0  0  0  0  0  0  0  0  0  0  0  0
    0.0000    0.0000    0.0000 C   0  0  0  0  0  0  0  0  0  0  0  0
    0.0000    0.0000    0.0000 N   0  0  0  0  0  0  0  0  0  0  0  0
    0.0000    0.0000    0.0000 N   0  0  0  0  0  0  0  0  0  0  0  0
    0.0000    0.0000    0.0000 C   0  0  0  0  0  0  0  0  0  0  0  0
    0.0000    0.0000    0.0000 N   0  0  0  0  0  0  0  0  0  0  0  0
    0.0000    0.0000    0.0000 C   0  0  0  0  0  0  0  0  0  0  0  0
  1  2  1  0
  2  3  1  0
  2  4  1  0
  4  5  1  0
  5  6  2  0
  6  7  1  0
  7  8  2  0
  8  9  1  0
  9 10  2  0
 10 11  1  0
 11 12  1  0
 12 13  2  0
 13 14  1  0
 14 15  1  0
 11 16  2  0
  6 17  1  0
 17 18  2  0
 18 19  1  0
 18 20  1  0
 20 21  2  0
 21 22  1  0
 22 23  2  0
 23  4  1  0
 16  7  1  0
 14 10  1  0
 23 17  1  0
M  END
>  <pIC50>  (454) 
6.16

>  <ChEMBL_ID>  (454) 
CHEMBL1242384

>  <document_journal>  (454) 
Nat. Chem. Biol.

>  <bao_endpoint>  (454) 
BAO_0000190

>  <potential_duplicate>  (454) 
False

>  <uo_units>  (454) 
UO_0000065

>  <canonical_smiles>  (454) 
CC(C)n1nc(c2ccc3c(ccn3C)c2)c4c(N)ncnc14

>  <parent_molecule_chembl_id>  (454) 
CHEMBL1242384

>  <assay_type>  (454) 
B

>  <src_id>  (454) 
1

>  <ligand_efficiency>  (454) 
{u'le': u'0.37', u'bei': u'20.11', u'sei': u'8.26', u'lle': u'3.09'}

>  <standard_flag>  (454) 
True

>  <molecule_chembl_id>  (454) 
CHEMBL1242384

>  <target_organism>  (454) 
Homo sapiens

>  <standard_units>  (454) 
nM

>  <record_id>  (454) 
953582

>  <document_chembl_id>  (454) 
CHEMBL1240340

>  <bao_format>  (454) 
BAO_0000357

>  <data_validity_description>  (454) 
None

>  <activity_id>  (454) 
3444301

>  <standard_type>  (454) 
IC50

>  <target_chembl_id>  (454) 
CHEMBL1862

>  <data_validity_comment>  (454) 
None

>  <published_value>  (454) 
0.69

>  <document_year>  (454) 
2008

>  <target_pref_name>  (454) 
Tyrosine-protein kinase ABL

>  <assay_chembl_id>  (454) 
CHEMBL1243972

>  <standard_relation>  (454) 
=

>  <assay_description>  (454) 
Inhibition of recombinant c-Abl by radioactive phosphotransfer assay in presence of 10 uM ATP

>  <published_relation>  (454) 
=

>  <standard_value>  (454) 
690

>  <qudt_units>  (454) 
http://www.openphacts.org/units/Nanomolar

>  <target_tax_id>  (454) 
9606

>  <bao_label>  (454) 
single protein format

>  <published_units>  (454) 
uM

>  <pchembl_value>  (454) 
6.16

>  <published_type>  (454) 
IC50

>  <activity_comment>  (454) 
None

$$$$

     RDKit          

 25 29  0  0  0  0  0  0  0  0999 V2000
    0.0000    0.0000    0.0000 C   0  0  0  0  0  0  0  0  0  0  0  0
    0.0000    0.0000    0.0000 N   0  0  0  0  0  0  0  0  0  0  0  0
    0.0000    0.0000    0.0000 C   0  0  0  0  0  0  0  0  0  0  0  0
    0.0000    0.0000    0.0000 C   0  0  0  0  0  0  0  0  0  0  0  0
    0.0000    0.0000    0.0000 C   0  0  0  0  0  0  0  0  0  0  0  0
    0.0000    0.0000    0.0000 C   0  0  0  0  0  0  0  0  0  0  0  0
    0.0000    0.0000    0.0000 C   0  0  0  0  0  0  0  0  0  0  0  0
    0.0000    0.0000    0.0000 C   0  0  0  0  0  0  0  0  0  0  0  0
    0.0000    0.0000    0.0000 C   0  0  0  0  0  0  0  0  0  0  0  0
    0.0000    0.0000    0.0000 C   0  0  0  0  0  0  0  0  0  0  0  0
    0.0000    0.0000    0.0000 C   0  0  0  0  0  0  0  0  0  0  0  0
    0.0000    0.0000    0.0000 N   0  0  0  0  0  0  0  0  0  0  0  0
    0.0000    0.0000    0.0000 N   0  0  0  0  0  0  0  0  0  0  0  0
    0.0000    0.0000    0.0000 C   0  0  0  0  0  0  0  0  0  0  0  0
    0.0000    0.0000    0.0000 C   0  0  0  0  0  0  0  0  0  0  0  0
    0.0000    0.0000    0.0000 C   0  0  0  0  0  0  0  0  0  0  0  0
    0.0000    0.0000    0.0000 C   0  0  0  0  0  0  0  0  0  0  0  0
    0.0000    0.0000    0.0000 C   0  0  0  0  0  0  0  0  0  0  0  0
    0.0000    0.0000    0.0000 C   0  0  0  0  0  0  0  0  0  0  0  0
    0.0000    0.0000    0.0000 N   0  0  0  0  0  0  0  0  0  0  0  0
    0.0000    0.0000    0.0000 C   0  0  0  0  0  0  0  0  0  0  0  0
    0.0000    0.0000    0.0000 N   0  0  0  0  0  0  0  0  0  0  0  0
    0.0000    0.0000    0.0000 C   0  0  0  0  0  0  0  0  0  0  0  0
    0.0000    0.0000    0.0000 N   0  0  0  0  0  0  0  0  0  0  0  0
    0.0000    0.0000    0.0000 C   0  0  0  0  0  0  0  0  0  0  0  0
  1  2  1  0
  2  3  1  0
  3  4  2  0
  4  5  1  0
  5  6  2  0
  6  7  1  0
  7  8  2  0
  8  9  1  0
  9 10  2  0
  7 11  1  0
 11 12  2  0
 12 13  1  0
 13 14  1  0
 14 15  1  0
 15 16  1  0
 16 17  1  0
 17 18  1  0
 13 19  1  0
 19 20  2  0
 20 21  1  0
 21 22  2  0
 22 23  1  0
 23 24  1  0
 23 25  2  0
 10  2  1  0
 10  5  1  0
 25 11  1  0
 18 14  1  0
 25 19  1  0
M  END
>  <pIC50>  (455) 
6.09

>  <ChEMBL_ID>  (455) 
CHEMBL1242385

>  <document_journal>  (455) 
Nat. Chem. Biol.

>  <bao_endpoint>  (455) 
BAO_0000190

>  <potential_duplicate>  (455) 
False

>  <uo_units>  (455) 
UO_0000065

>  <canonical_smiles>  (455) 
Cn1ccc2cc(ccc12)c3nn(C4CCCC4)c5ncnc(N)c35

>  <parent_molecule_chembl_id>  (455) 
CHEMBL1242385

>  <assay_type>  (455) 
B

>  <src_id>  (455) 
1

>  <ligand_efficiency>  (455) 
{u'le': u'0.33', u'bei': u'18.32', u'sei': u'8.17', u'lle': u'2.35'}

>  <standard_flag>  (455) 
True

>  <molecule_chembl_id>  (455) 
CHEMBL1242385

>  <target_organism>  (455) 
Homo sapiens

>  <standard_units>  (455) 
nM

>  <record_id>  (455) 
953583

>  <document_chembl_id>  (455) 
CHEMBL1240340

>  <bao_format>  (455) 
BAO_0000357

>  <data_validity_description>  (455) 
None

>  <activity_id>  (455) 
3444315

>  <standard_type>  (455) 
IC50

>  <target_chembl_id>  (455) 
CHEMBL1862

>  <data_validity_comment>  (455) 
None

>  <published_value>  (455) 
0.816

>  <document_year>  (455) 
2008

>  <target_pref_name>  (455) 
Tyrosine-protein kinase ABL

>  <assay_chembl_id>  (455) 
CHEMBL1243972

>  <standard_relation>  (455) 
=

>  <assay_description>  (455) 
Inhibition of recombinant c-Abl by radioactive phosphotransfer assay in presence of 10 uM ATP

>  <published_relation>  (455) 
=

>  <standard_value>  (455) 
816

>  <qudt_units>  (455) 
http://www.openphacts.org/units/Nanomolar

>  <target_tax_id>  (455) 
9606

>  <bao_label>  (455) 
single protein format

>  <published_units>  (455) 
uM

>  <pchembl_value>  (455) 
6.09

>  <published_type>  (455) 
IC50

>  <activity_comment>  (455) 
None

$$$$

     RDKit          

 22 25  0  0  0  0  0  0  0  0999 V2000
    0.0000    0.0000    0.0000 C   0  0  0  0  0  0  0  0  0  0  0  0
    0.0000    0.0000    0.0000 C   0  0  0  0  0  0  0  0  0  0  0  0
    0.0000    0.0000    0.0000 C   0  0  0  0  0  0  0  0  0  0  0  0
    0.0000    0.0000    0.0000 N   0  0  0  0  0  0  0  0  0  0  0  0
    0.0000    0.0000    0.0000 N   0  0  0  0  0  0  0  0  0  0  0  0
    0.0000    0.0000    0.0000 C   0  0  0  0  0  0  0  0  0  0  0  0
    0.0000    0.0000    0.0000 C   0  0  0  0  0  0  0  0  0  0  0  0
    0.0000    0.0000    0.0000 C   0  0  0  0  0  0  0  0  0  0  0  0
    0.0000    0.0000    0.0000 C   0  0  0  0  0  0  0  0  0  0  0  0
    0.0000    0.0000    0.0000 C   0  0  0  0  0  0  0  0  0  0  0  0
    0.0000    0.0000    0.0000 N   0  0  0  0  0  0  0  0  0  0  0  0
    0.0000    0.0000    0.0000 N   0  0  0  0  0  0  0  0  0  0  0  0
    0.0000    0.0000    0.0000 C   0  0  0  0  0  0  0  0  0  0  0  0
    0.0000    0.0000    0.0000 C   0  0  0  0  0  0  0  0  0  0  0  0
    0.0000    0.0000    0.0000 C   0  0  0  0  0  0  0  0  0  0  0  0
    0.0000    0.0000    0.0000 C   0  0  0  0  0  0  0  0  0  0  0  0
    0.0000    0.0000    0.0000 C   0  0  0  0  0  0  0  0  0  0  0  0
    0.0000    0.0000    0.0000 N   0  0  0  0  0  0  0  0  0  0  0  0
    0.0000    0.0000    0.0000 N   0  0  0  0  0  0  0  0  0  0  0  0
    0.0000    0.0000    0.0000 C   0  0  0  0  0  0  0  0  0  0  0  0
    0.0000    0.0000    0.0000 N   0  0  0  0  0  0  0  0  0  0  0  0
    0.0000    0.0000    0.0000 C   0  0  0  0  0  0  0  0  0  0  0  0
  1  2  1  0
  2  3  1  0
  2  4  1  0
  4  5  1  0
  5  6  2  0
  6  7  1  0
  7  8  2  0
  8  9  1  0
  9 10  2  0
 10 11  1  0
 11 12  1  0
 12 13  2  0
 13 14  1  0
 14 15  2  0
  6 16  1  0
 16 17  2  0
 17 18  1  0
 17 19  1  0
 19 20  2  0
 20 21  1  0
 21 22  2  0
 22  4  1  0
 15  7  1  0
 14 10  1  0
 22 16  1  0
M  END
>  <pIC50>  (456) 
6.3

>  <ChEMBL_ID>  (456) 
CHEMBL1242386

>  <document_journal>  (456) 
Nat. Chem. Biol.

>  <bao_endpoint>  (456) 
BAO_0000190

>  <potential_duplicate>  (456) 
False

>  <uo_units>  (456) 
UO_0000065

>  <canonical_smiles>  (456) 
CC(C)n1nc(c2ccc3[nH]ncc3c2)c4c(N)ncnc14

>  <parent_molecule_chembl_id>  (456) 
CHEMBL1242386

>  <assay_type>  (456) 
B

>  <src_id>  (456) 
1

>  <ligand_efficiency>  (456) 
{u'le': u'0.39', u'bei': u'21.49', u'sei': u'6.41', u'lle': u'4.09'}

>  <standard_flag>  (456) 
True

>  <molecule_chembl_id>  (456) 
CHEMBL1242386

>  <target_organism>  (456) 
Homo sapiens

>  <standard_units>  (456) 
nM

>  <record_id>  (456) 
953584

>  <document_chembl_id>  (456) 
CHEMBL1240340

>  <bao_format>  (456) 
BAO_0000357

>  <data_validity_description>  (456) 
None

>  <activity_id>  (456) 
3444329

>  <standard_type>  (456) 
IC50

>  <target_chembl_id>  (456) 
CHEMBL1862

>  <data_validity_comment>  (456) 
None

>  <published_value>  (456) 
0.498

>  <document_year>  (456) 
2008

>  <target_pref_name>  (456) 
Tyrosine-protein kinase ABL

>  <assay_chembl_id>  (456) 
CHEMBL1243972

>  <standard_relation>  (456) 
=

>  <assay_description>  (456) 
Inhibition of recombinant c-Abl by radioactive phosphotransfer assay in presence of 10 uM ATP

>  <published_relation>  (456) 
=

>  <standard_value>  (456) 
498

>  <qudt_units>  (456) 
http://www.openphacts.org/units/Nanomolar

>  <target_tax_id>  (456) 
9606

>  <bao_label>  (456) 
single protein format

>  <published_units>  (456) 
uM

>  <pchembl_value>  (456) 
6.3

>  <published_type>  (456) 
IC50

>  <activity_comment>  (456) 
None

$$$$

     RDKit          

 24 28  0  0  0  0  0  0  0  0999 V2000
    0.0000    0.0000    0.0000 N   0  0  0  0  0  0  0  0  0  0  0  0
    0.0000    0.0000    0.0000 C   0  0  0  0  0  0  0  0  0  0  0  0
    0.0000    0.0000    0.0000 N   0  0  0  0  0  0  0  0  0  0  0  0
    0.0000    0.0000    0.0000 C   0  0  0  0  0  0  0  0  0  0  0  0
    0.0000    0.0000    0.0000 N   0  0  0  0  0  0  0  0  0  0  0  0
    0.0000    0.0000    0.0000 C   0  0  0  0  0  0  0  0  0  0  0  0
    0.0000    0.0000    0.0000 C   0  0  0  0  0  0  0  0  0  0  0  0
    0.0000    0.0000    0.0000 C   0  0  0  0  0  0  0  0  0  0  0  0
    0.0000    0.0000    0.0000 N   0  0  0  0  0  0  0  0  0  0  0  0
    0.0000    0.0000    0.0000 N   0  0  0  0  0  0  0  0  0  0  0  0
    0.0000    0.0000    0.0000 C   0  0  0  0  0  0  0  0  0  0  0  0
    0.0000    0.0000    0.0000 C   0  0  0  0  0  0  0  0  0  0  0  0
    0.0000    0.0000    0.0000 C   0  0  0  0  0  0  0  0  0  0  0  0
    0.0000    0.0000    0.0000 C   0  0  0  0  0  0  0  0  0  0  0  0
    0.0000    0.0000    0.0000 C   0  0  0  0  0  0  0  0  0  0  0  0
    0.0000    0.0000    0.0000 C   0  0  0  0  0  0  0  0  0  0  0  0
    0.0000    0.0000    0.0000 C   0  0  0  0  0  0  0  0  0  0  0  0
    0.0000    0.0000    0.0000 C   0  0  0  0  0  0  0  0  0  0  0  0
    0.0000    0.0000    0.0000 C   0  0  0  0  0  0  0  0  0  0  0  0
    0.0000    0.0000    0.0000 N   0  0  0  0  0  0  0  0  0  0  0  0
    0.0000    0.0000    0.0000 N   0  0  0  0  0  0  0  0  0  0  0  0
    0.0000    0.0000    0.0000 C   0  0  0  0  0  0  0  0  0  0  0  0
    0.0000    0.0000    0.0000 C   0  0  0  0  0  0  0  0  0  0  0  0
    0.0000    0.0000    0.0000 C   0  0  0  0  0  0  0  0  0  0  0  0
  1  2  1  0
  2  3  2  0
  3  4  1  0
  4  5  2  0
  5  6  1  0
  6  7  2  0
  7  8  1  0
  8  9  2  0
  9 10  1  0
 10 11  1  0
 11 12  1  0
 12 13  1  0
 13 14  1  0
 14 15  1  0
  8 16  1  0
 16 17  2  0
 17 18  1  0
 18 19  2  0
 19 20  1  0
 20 21  1  0
 21 22  2  0
 22 23  1  0
 23 24  2  0
  7  2  1  0
 10  6  1  0
 15 11  1  0
 24 16  1  0
 23 19  1  0
M  END
>  <pIC50>  (457) 
6.33

>  <ChEMBL_ID>  (457) 
CHEMBL1242475

>  <document_journal>  (457) 
Nat. Chem. Biol.

>  <bao_endpoint>  (457) 
BAO_0000190

>  <potential_duplicate>  (457) 
False

>  <uo_units>  (457) 
UO_0000065

>  <canonical_smiles>  (457) 
Nc1ncnc2c1c(nn2C3CCCC3)c4ccc5[nH]ncc5c4

>  <parent_molecule_chembl_id>  (457) 
CHEMBL1242475

>  <assay_type>  (457) 
B

>  <src_id>  (457) 
1

>  <ligand_efficiency>  (457) 
{u'le': u'0.36', u'bei': u'19.82', u'sei': u'6.44', u'lle': u'3.44'}

>  <standard_flag>  (457) 
True

>  <molecule_chembl_id>  (457) 
CHEMBL1242475

>  <target_organism>  (457) 
Homo sapiens

>  <standard_units>  (457) 
nM

>  <record_id>  (457) 
953710

>  <document_chembl_id>  (457) 
CHEMBL1240340

>  <bao_format>  (457) 
BAO_0000357

>  <data_validity_description>  (457) 
None

>  <activity_id>  (457) 
3444343

>  <standard_type>  (457) 
IC50

>  <target_chembl_id>  (457) 
CHEMBL1862

>  <data_validity_comment>  (457) 
None

>  <published_value>  (457) 
0.469

>  <document_year>  (457) 
2008

>  <target_pref_name>  (457) 
Tyrosine-protein kinase ABL

>  <assay_chembl_id>  (457) 
CHEMBL1243972

>  <standard_relation>  (457) 
=

>  <assay_description>  (457) 
Inhibition of recombinant c-Abl by radioactive phosphotransfer assay in presence of 10 uM ATP

>  <published_relation>  (457) 
=

>  <standard_value>  (457) 
469

>  <qudt_units>  (457) 
http://www.openphacts.org/units/Nanomolar

>  <target_tax_id>  (457) 
9606

>  <bao_label>  (457) 
single protein format

>  <published_units>  (457) 
uM

>  <pchembl_value>  (457) 
6.33

>  <published_type>  (457) 
IC50

>  <activity_comment>  (457) 
None

$$$$

     RDKit          

 23 26  0  0  0  0  0  0  0  0999 V2000
    0.0000    0.0000    0.0000 C   0  0  0  0  0  0  0  0  0  0  0  0
    0.0000    0.0000    0.0000 C   0  0  0  0  0  0  0  0  0  0  0  0
    0.0000    0.0000    0.0000 C   0  0  0  0  0  0  0  0  0  0  0  0
    0.0000    0.0000    0.0000 N   0  0  0  0  0  0  0  0  0  0  0  0
    0.0000    0.0000    0.0000 N   0  0  0  0  0  0  0  0  0  0  0  0
    0.0000    0.0000    0.0000 C   0  0  0  0  0  0  0  0  0  0  0  0
    0.0000    0.0000    0.0000 C   0  0  0  0  0  0  0  0  0  0  0  0
    0.0000    0.0000    0.0000 C   0  0  0  0  0  0  0  0  0  0  0  0
    0.0000    0.0000    0.0000 C   0  0  0  0  0  0  0  0  0  0  0  0
    0.0000    0.0000    0.0000 C   0  0  0  0  0  0  0  0  0  0  0  0
    0.0000    0.0000    0.0000 C   0  0  0  0  0  0  0  0  0  0  0  0
    0.0000    0.0000    0.0000 N   0  0  0  0  0  0  0  0  0  0  0  0
    0.0000    0.0000    0.0000 N   0  0  0  0  0  0  0  0  0  0  0  0
    0.0000    0.0000    0.0000 N   0  0  0  0  0  0  0  0  0  0  0  0
    0.0000    0.0000    0.0000 C   0  0  0  0  0  0  0  0  0  0  0  0
    0.0000    0.0000    0.0000 C   0  0  0  0  0  0  0  0  0  0  0  0
    0.0000    0.0000    0.0000 C   0  0  0  0  0  0  0  0  0  0  0  0
    0.0000    0.0000    0.0000 C   0  0  0  0  0  0  0  0  0  0  0  0
    0.0000    0.0000    0.0000 N   0  0  0  0  0  0  0  0  0  0  0  0
    0.0000    0.0000    0.0000 N   0  0  0  0  0  0  0  0  0  0  0  0
    0.0000    0.0000    0.0000 C   0  0  0  0  0  0  0  0  0  0  0  0
    0.0000    0.0000    0.0000 N   0  0  0  0  0  0  0  0  0  0  0  0
    0.0000    0.0000    0.0000 C   0  0  0  0  0  0  0  0  0  0  0  0
  1  2  1  0
  2  3  1  0
  2  4  1  0
  4  5  1  0
  5  6  2  0
  6  7  1  0
  7  8  2  0
  8  9  1  0
  9 10  2  0
 10 11  1  0
 11 12  1  0
 11 13  2  0
 13 14  1  0
 14 15  1  0
 15 16  2  0
  6 17  1  0
 17 18  2  0
 18 19  1  0
 18 20  1  0
 20 21  2  0
 21 22  1  0
 22 23  2  0
 23  4  1  0
 16  7  1  0
 15 10  1  0
 23 17  1  0
M  END
>  <pIC50>  (458) 
6.49

>  <ChEMBL_ID>  (458) 
CHEMBL1242476

>  <document_journal>  (458) 
Nat. Chem. Biol.

>  <bao_endpoint>  (458) 
BAO_0000190

>  <potential_duplicate>  (458) 
False

>  <uo_units>  (458) 
UO_0000065

>  <canonical_smiles>  (458) 
CC(C)n1nc(c2ccc3c(N)n[nH]c3c2)c4c(N)ncnc14

>  <parent_molecule_chembl_id>  (458) 
CHEMBL1242476

>  <assay_type>  (458) 
B

>  <src_id>  (458) 
1

>  <ligand_efficiency>  (458) 
{u'le': u'0.39', u'bei': u'21.03', u'sei': u'5.22', u'lle': u'4.49'}

>  <standard_flag>  (458) 
True

>  <molecule_chembl_id>  (458) 
CHEMBL1242476

>  <target_organism>  (458) 
Homo sapiens

>  <standard_units>  (458) 
nM

>  <record_id>  (458) 
953711

>  <document_chembl_id>  (458) 
CHEMBL1240340

>  <bao_format>  (458) 
BAO_0000357

>  <data_validity_description>  (458) 
None

>  <activity_id>  (458) 
3444357

>  <standard_type>  (458) 
IC50

>  <target_chembl_id>  (458) 
CHEMBL1862

>  <data_validity_comment>  (458) 
None

>  <published_value>  (458) 
0.327

>  <document_year>  (458) 
2008

>  <target_pref_name>  (458) 
Tyrosine-protein kinase ABL

>  <assay_chembl_id>  (458) 
CHEMBL1243972

>  <standard_relation>  (458) 
=

>  <assay_description>  (458) 
Inhibition of recombinant c-Abl by radioactive phosphotransfer assay in presence of 10 uM ATP

>  <published_relation>  (458) 
=

>  <standard_value>  (458) 
327

>  <qudt_units>  (458) 
http://www.openphacts.org/units/Nanomolar

>  <target_tax_id>  (458) 
9606

>  <bao_label>  (458) 
single protein format

>  <published_units>  (458) 
uM

>  <pchembl_value>  (458) 
6.49

>  <published_type>  (458) 
IC50

>  <activity_comment>  (458) 
None

$$$$

     RDKit          

 22 25  0  0  0  0  0  0  0  0999 V2000
    0.0000    0.0000    0.0000 C   0  0  0  0  0  0  0  0  0  0  0  0
    0.0000    0.0000    0.0000 C   0  0  0  0  0  0  0  0  0  0  0  0
    0.0000    0.0000    0.0000 C   0  0  0  0  0  0  0  0  0  0  0  0
    0.0000    0.0000    0.0000 N   0  0  0  0  0  0  0  0  0  0  0  0
    0.0000    0.0000    0.0000 N   0  0  0  0  0  0  0  0  0  0  0  0
    0.0000    0.0000    0.0000 C   0  0  0  0  0  0  0  0  0  0  0  0
    0.0000    0.0000    0.0000 C   0  0  0  0  0  0  0  0  0  0  0  0
    0.0000    0.0000    0.0000 C   0  0  0  0  0  0  0  0  0  0  0  0
    0.0000    0.0000    0.0000 C   0  0  0  0  0  0  0  0  0  0  0  0
    0.0000    0.0000    0.0000 C   0  0  0  0  0  0  0  0  0  0  0  0
    0.0000    0.0000    0.0000 C   0  0  0  0  0  0  0  0  0  0  0  0
    0.0000    0.0000    0.0000 N   0  0  0  0  0  0  0  0  0  0  0  0
    0.0000    0.0000    0.0000 N   0  0  0  0  0  0  0  0  0  0  0  0
    0.0000    0.0000    0.0000 C   0  0  0  0  0  0  0  0  0  0  0  0
    0.0000    0.0000    0.0000 C   0  0  0  0  0  0  0  0  0  0  0  0
    0.0000    0.0000    0.0000 C   0  0  0  0  0  0  0  0  0  0  0  0
    0.0000    0.0000    0.0000 C   0  0  0  0  0  0  0  0  0  0  0  0
    0.0000    0.0000    0.0000 N   0  0  0  0  0  0  0  0  0  0  0  0
    0.0000    0.0000    0.0000 N   0  0  0  0  0  0  0  0  0  0  0  0
    0.0000    0.0000    0.0000 C   0  0  0  0  0  0  0  0  0  0  0  0
    0.0000    0.0000    0.0000 N   0  0  0  0  0  0  0  0  0  0  0  0
    0.0000    0.0000    0.0000 C   0  0  0  0  0  0  0  0  0  0  0  0
  1  2  1  0
  2  3  1  0
  2  4  1  0
  4  5  1  0
  5  6  2  0
  6  7  1  0
  7  8  2  0
  8  9  1  0
  9 10  2  0
 10 11  1  0
 11 12  2  0
 12 13  1  0
 13 14  1  0
 14 15  2  0
  6 16  1  0
 16 17  2  0
 17 18  1  0
 17 19  1  0
 19 20  2  0
 20 21  1  0
 21 22  2  0
 22  4  1  0
 15  7  1  0
 14 10  1  0
 22 16  1  0
M  END
>  <pIC50>  (459) 
6.96

>  <ChEMBL_ID>  (459) 
CHEMBL1242477

>  <document_journal>  (459) 
Nat. Chem. Biol.

>  <bao_endpoint>  (459) 
BAO_0000190

>  <potential_duplicate>  (459) 
False

>  <uo_units>  (459) 
UO_0000065

>  <canonical_smiles>  (459) 
CC(C)n1nc(c2ccc3cn[nH]c3c2)c4c(N)ncnc14

>  <parent_molecule_chembl_id>  (459) 
CHEMBL1242477

>  <assay_type>  (459) 
B

>  <src_id>  (459) 
1

>  <ligand_efficiency>  (459) 
{u'le': u'0.43', u'bei': u'23.72', u'sei': u'7.08', u'lle': u'4.75'}

>  <standard_flag>  (459) 
True

>  <molecule_chembl_id>  (459) 
CHEMBL1242477

>  <target_organism>  (459) 
Homo sapiens

>  <standard_units>  (459) 
nM

>  <record_id>  (459) 
953712

>  <document_chembl_id>  (459) 
CHEMBL1240340

>  <bao_format>  (459) 
BAO_0000357

>  <data_validity_description>  (459) 
None

>  <activity_id>  (459) 
3444371

>  <standard_type>  (459) 
IC50

>  <target_chembl_id>  (459) 
CHEMBL1862

>  <data_validity_comment>  (459) 
None

>  <published_value>  (459) 
0.11

>  <document_year>  (459) 
2008

>  <target_pref_name>  (459) 
Tyrosine-protein kinase ABL

>  <assay_chembl_id>  (459) 
CHEMBL1243972

>  <standard_relation>  (459) 
=

>  <assay_description>  (459) 
Inhibition of recombinant c-Abl by radioactive phosphotransfer assay in presence of 10 uM ATP

>  <published_relation>  (459) 
=

>  <standard_value>  (459) 
110

>  <qudt_units>  (459) 
http://www.openphacts.org/units/Nanomolar

>  <target_tax_id>  (459) 
9606

>  <bao_label>  (459) 
single protein format

>  <published_units>  (459) 
uM

>  <pchembl_value>  (459) 
6.96

>  <published_type>  (459) 
IC50

>  <activity_comment>  (459) 
None

$$$$

     RDKit          

 24 28  0  0  0  0  0  0  0  0999 V2000
    0.0000    0.0000    0.0000 N   0  0  0  0  0  0  0  0  0  0  0  0
    0.0000    0.0000    0.0000 C   0  0  0  0  0  0  0  0  0  0  0  0
    0.0000    0.0000    0.0000 N   0  0  0  0  0  0  0  0  0  0  0  0
    0.0000    0.0000    0.0000 C   0  0  0  0  0  0  0  0  0  0  0  0
    0.0000    0.0000    0.0000 N   0  0  0  0  0  0  0  0  0  0  0  0
    0.0000    0.0000    0.0000 C   0  0  0  0  0  0  0  0  0  0  0  0
    0.0000    0.0000    0.0000 C   0  0  0  0  0  0  0  0  0  0  0  0
    0.0000    0.0000    0.0000 C   0  0  0  0  0  0  0  0  0  0  0  0
    0.0000    0.0000    0.0000 N   0  0  0  0  0  0  0  0  0  0  0  0
    0.0000    0.0000    0.0000 N   0  0  0  0  0  0  0  0  0  0  0  0
    0.0000    0.0000    0.0000 C   0  0  0  0  0  0  0  0  0  0  0  0
    0.0000    0.0000    0.0000 C   0  0  0  0  0  0  0  0  0  0  0  0
    0.0000    0.0000    0.0000 C   0  0  0  0  0  0  0  0  0  0  0  0
    0.0000    0.0000    0.0000 C   0  0  0  0  0  0  0  0  0  0  0  0
    0.0000    0.0000    0.0000 C   0  0  0  0  0  0  0  0  0  0  0  0
    0.0000    0.0000    0.0000 C   0  0  0  0  0  0  0  0  0  0  0  0
    0.0000    0.0000    0.0000 C   0  0  0  0  0  0  0  0  0  0  0  0
    0.0000    0.0000    0.0000 C   0  0  0  0  0  0  0  0  0  0  0  0
    0.0000    0.0000    0.0000 C   0  0  0  0  0  0  0  0  0  0  0  0
    0.0000    0.0000    0.0000 C   0  0  0  0  0  0  0  0  0  0  0  0
    0.0000    0.0000    0.0000 N   0  0  0  0  0  0  0  0  0  0  0  0
    0.0000    0.0000    0.0000 N   0  0  0  0  0  0  0  0  0  0  0  0
    0.0000    0.0000    0.0000 C   0  0  0  0  0  0  0  0  0  0  0  0
    0.0000    0.0000    0.0000 C   0  0  0  0  0  0  0  0  0  0  0  0
  1  2  1  0
  2  3  2  0
  3  4  1  0
  4  5  2  0
  5  6  1  0
  6  7  2  0
  7  8  1  0
  8  9  2  0
  9 10  1  0
 10 11  1  0
 11 12  1  0
 12 13  1  0
 13 14  1  0
 14 15  1  0
  8 16  1  0
 16 17  2  0
 17 18  1  0
 18 19  2  0
 19 20  1  0
 20 21  2  0
 21 22  1  0
 22 23  1  0
 23 24  2  0
  7  2  1  0
 10  6  1  0
 15 11  1  0
 24 16  1  0
 23 19  1  0
M  END
>  <pIC50>  (460) 
6.85

>  <ChEMBL_ID>  (460) 
CHEMBL1242572

>  <document_journal>  (460) 
Nat. Chem. Biol.

>  <bao_endpoint>  (460) 
BAO_0000190

>  <potential_duplicate>  (460) 
False

>  <uo_units>  (460) 
UO_0000065

>  <canonical_smiles>  (460) 
Nc1ncnc2c1c(nn2C3CCCC3)c4ccc5cn[nH]c5c4

>  <parent_molecule_chembl_id>  (460) 
CHEMBL1242572

>  <assay_type>  (460) 
B

>  <src_id>  (460) 
1

>  <ligand_efficiency>  (460) 
{u'le': u'0.39', u'bei': u'21.46', u'sei': u'6.97', u'lle': u'3.96'}

>  <standard_flag>  (460) 
True

>  <molecule_chembl_id>  (460) 
CHEMBL1242572

>  <target_organism>  (460) 
Homo sapiens

>  <standard_units>  (460) 
nM

>  <record_id>  (460) 
953837

>  <document_chembl_id>  (460) 
CHEMBL1240340

>  <bao_format>  (460) 
BAO_0000357

>  <data_validity_description>  (460) 
None

>  <activity_id>  (460) 
3444385

>  <standard_type>  (460) 
IC50

>  <target_chembl_id>  (460) 
CHEMBL1862

>  <data_validity_comment>  (460) 
None

>  <published_value>  (460) 
0.14

>  <document_year>  (460) 
2008

>  <target_pref_name>  (460) 
Tyrosine-protein kinase ABL

>  <assay_chembl_id>  (460) 
CHEMBL1243972

>  <standard_relation>  (460) 
=

>  <assay_description>  (460) 
Inhibition of recombinant c-Abl by radioactive phosphotransfer assay in presence of 10 uM ATP

>  <published_relation>  (460) 
=

>  <standard_value>  (460) 
140

>  <qudt_units>  (460) 
http://www.openphacts.org/units/Nanomolar

>  <target_tax_id>  (460) 
9606

>  <bao_label>  (460) 
single protein format

>  <published_units>  (460) 
uM

>  <pchembl_value>  (460) 
6.85

>  <published_type>  (460) 
IC50

>  <activity_comment>  (460) 
None

$$$$

     RDKit          

 23 26  0  0  0  0  0  0  0  0999 V2000
    0.0000    0.0000    0.0000 C   0  0  0  0  0  0  0  0  0  0  0  0
    0.0000    0.0000    0.0000 C   0  0  0  0  0  0  0  0  0  0  0  0
    0.0000    0.0000    0.0000 C   0  0  0  0  0  0  0  0  0  0  0  0
    0.0000    0.0000    0.0000 N   0  0  0  0  0  0  0  0  0  0  0  0
    0.0000    0.0000    0.0000 N   0  0  0  0  0  0  0  0  0  0  0  0
    0.0000    0.0000    0.0000 C   0  0  0  0  0  0  0  0  0  0  0  0
    0.0000    0.0000    0.0000 C   0  0  0  0  0  0  0  0  0  0  0  0
    0.0000    0.0000    0.0000 C   0  0  0  0  0  0  0  0  0  0  0  0
    0.0000    0.0000    0.0000 C   0  0  0  0  0  0  0  0  0  0  0  0
    0.0000    0.0000    0.0000 F   0  0  0  0  0  0  0  0  0  0  0  0
    0.0000    0.0000    0.0000 C   0  0  0  0  0  0  0  0  0  0  0  0
    0.0000    0.0000    0.0000 C   0  0  0  0  0  0  0  0  0  0  0  0
    0.0000    0.0000    0.0000 N   0  0  0  0  0  0  0  0  0  0  0  0
    0.0000    0.0000    0.0000 N   0  0  0  0  0  0  0  0  0  0  0  0
    0.0000    0.0000    0.0000 C   0  0  0  0  0  0  0  0  0  0  0  0
    0.0000    0.0000    0.0000 C   0  0  0  0  0  0  0  0  0  0  0  0
    0.0000    0.0000    0.0000 C   0  0  0  0  0  0  0  0  0  0  0  0
    0.0000    0.0000    0.0000 C   0  0  0  0  0  0  0  0  0  0  0  0
    0.0000    0.0000    0.0000 N   0  0  0  0  0  0  0  0  0  0  0  0
    0.0000    0.0000    0.0000 N   0  0  0  0  0  0  0  0  0  0  0  0
    0.0000    0.0000    0.0000 C   0  0  0  0  0  0  0  0  0  0  0  0
    0.0000    0.0000    0.0000 N   0  0  0  0  0  0  0  0  0  0  0  0
    0.0000    0.0000    0.0000 C   0  0  0  0  0  0  0  0  0  0  0  0
  1  2  1  0
  2  3  1  0
  2  4  1  0
  4  5  1  0
  5  6  2  0
  6  7  1  0
  7  8  2  0
  8  9  1  0
  9 10  1  0
  9 11  2  0
 11 12  1  0
 12 13  2  0
 13 14  1  0
 14 15  1  0
 15 16  2  0
  6 17  1  0
 17 18  2  0
 18 19  1  0
 18 20  1  0
 20 21  2  0
 21 22  1  0
 22 23  2  0
 23  4  1  0
 16  7  1  0
 15 11  1  0
 23 17  1  0
M  END
>  <pIC50>  (461) 
7.06

>  <ChEMBL_ID>  (461) 
CHEMBL1242573

>  <document_journal>  (461) 
Nat. Chem. Biol.

>  <bao_endpoint>  (461) 
BAO_0000190

>  <potential_duplicate>  (461) 
False

>  <uo_units>  (461) 
UO_0000065

>  <canonical_smiles>  (461) 
CC(C)n1nc(c2cc(F)c3cn[nH]c3c2)c4c(N)ncnc14

>  <parent_molecule_chembl_id>  (461) 
CHEMBL1242573

>  <assay_type>  (461) 
B

>  <src_id>  (461) 
1

>  <ligand_efficiency>  (461) 
{u'le': u'0.42', u'bei': u'22.68', u'sei': u'7.18', u'lle': u'4.64'}

>  <standard_flag>  (461) 
True

>  <molecule_chembl_id>  (461) 
CHEMBL1242573

>  <target_organism>  (461) 
Homo sapiens

>  <standard_units>  (461) 
nM

>  <record_id>  (461) 
953838

>  <document_chembl_id>  (461) 
CHEMBL1240340

>  <bao_format>  (461) 
BAO_0000357

>  <data_validity_description>  (461) 
None

>  <activity_id>  (461) 
3444399

>  <standard_type>  (461) 
IC50

>  <target_chembl_id>  (461) 
CHEMBL1862

>  <data_validity_comment>  (461) 
None

>  <published_value>  (461) 
0.087

>  <document_year>  (461) 
2008

>  <target_pref_name>  (461) 
Tyrosine-protein kinase ABL

>  <assay_chembl_id>  (461) 
CHEMBL1243972

>  <standard_relation>  (461) 
=

>  <assay_description>  (461) 
Inhibition of recombinant c-Abl by radioactive phosphotransfer assay in presence of 10 uM ATP

>  <published_relation>  (461) 
=

>  <standard_value>  (461) 
87

>  <qudt_units>  (461) 
http://www.openphacts.org/units/Nanomolar

>  <target_tax_id>  (461) 
9606

>  <bao_label>  (461) 
single protein format

>  <published_units>  (461) 
uM

>  <pchembl_value>  (461) 
7.06

>  <published_type>  (461) 
IC50

>  <activity_comment>  (461) 
None

$$$$

     RDKit          

 20 23  0  0  0  0  0  0  0  0999 V2000
    0.0000    0.0000    0.0000 C   0  0  0  0  0  0  0  0  0  0  0  0
    0.0000    0.0000    0.0000 N   0  0  0  0  0  0  0  0  0  0  0  0
    0.0000    0.0000    0.0000 N   0  0  0  0  0  0  0  0  0  0  0  0
    0.0000    0.0000    0.0000 C   0  0  0  0  0  0  0  0  0  0  0  0
    0.0000    0.0000    0.0000 C   0  0  0  0  0  0  0  0  0  0  0  0
    0.0000    0.0000    0.0000 C   0  0  0  0  0  0  0  0  0  0  0  0
    0.0000    0.0000    0.0000 C   0  0  0  0  0  0  0  0  0  0  0  0
    0.0000    0.0000    0.0000 C   0  0  0  0  0  0  0  0  0  0  0  0
    0.0000    0.0000    0.0000 C   0  0  0  0  0  0  0  0  0  0  0  0
    0.0000    0.0000    0.0000 C   0  0  0  0  0  0  0  0  0  0  0  0
    0.0000    0.0000    0.0000 N   0  0  0  0  0  0  0  0  0  0  0  0
    0.0000    0.0000    0.0000 C   0  0  0  0  0  0  0  0  0  0  0  0
    0.0000    0.0000    0.0000 C   0  0  0  0  0  0  0  0  0  0  0  0
    0.0000    0.0000    0.0000 C   0  0  0  0  0  0  0  0  0  0  0  0
    0.0000    0.0000    0.0000 C   0  0  0  0  0  0  0  0  0  0  0  0
    0.0000    0.0000    0.0000 N   0  0  0  0  0  0  0  0  0  0  0  0
    0.0000    0.0000    0.0000 N   0  0  0  0  0  0  0  0  0  0  0  0
    0.0000    0.0000    0.0000 C   0  0  0  0  0  0  0  0  0  0  0  0
    0.0000    0.0000    0.0000 N   0  0  0  0  0  0  0  0  0  0  0  0
    0.0000    0.0000    0.0000 C   0  0  0  0  0  0  0  0  0  0  0  0
  1  2  1  0
  2  3  1  0
  3  4  2  0
  4  5  1  0
  5  6  2  0
  6  7  1  0
  7  8  2  0
  8  9  1  0
  9 10  2  0
 10 11  1  0
 11 12  1  0
 12 13  2  0
  4 14  1  0
 14 15  2  0
 15 16  1  0
 15 17  1  0
 17 18  2  0
 18 19  1  0
 19 20  2  0
 20  2  1  0
 13  5  1  0
 12  8  1  0
 20 14  1  0
M  END
>  <pIC50>  (462) 
5.82

>  <ChEMBL_ID>  (462) 
CHEMBL1240566

>  <document_journal>  (462) 
Nat. Chem. Biol.

>  <bao_endpoint>  (462) 
BAO_0000190

>  <potential_duplicate>  (462) 
False

>  <uo_units>  (462) 
UO_0000065

>  <canonical_smiles>  (462) 
Cn1nc(c2ccc3cc[nH]c3c2)c4c(N)ncnc14

>  <parent_molecule_chembl_id>  (462) 
CHEMBL1240566

>  <assay_type>  (462) 
B

>  <src_id>  (462) 
1

>  <ligand_efficiency>  (462) 
{u'le': u'0.4', u'bei': u'22.04', u'sei': u'6.82', u'lle': u'3.69'}

>  <standard_flag>  (462) 
True

>  <molecule_chembl_id>  (462) 
CHEMBL1240566

>  <target_organism>  (462) 
Homo sapiens

>  <standard_units>  (462) 
nM

>  <record_id>  (462) 
950921

>  <document_chembl_id>  (462) 
CHEMBL1240340

>  <bao_format>  (462) 
BAO_0000357

>  <data_validity_description>  (462) 
None

>  <activity_id>  (462) 
3444413

>  <standard_type>  (462) 
IC50

>  <target_chembl_id>  (462) 
CHEMBL1862

>  <data_validity_comment>  (462) 
None

>  <published_value>  (462) 
1.5

>  <document_year>  (462) 
2008

>  <target_pref_name>  (462) 
Tyrosine-protein kinase ABL

>  <assay_chembl_id>  (462) 
CHEMBL1243972

>  <standard_relation>  (462) 
=

>  <assay_description>  (462) 
Inhibition of recombinant c-Abl by radioactive phosphotransfer assay in presence of 10 uM ATP

>  <published_relation>  (462) 
=

>  <standard_value>  (462) 
1500

>  <qudt_units>  (462) 
http://www.openphacts.org/units/Nanomolar

>  <target_tax_id>  (462) 
9606

>  <bao_label>  (462) 
single protein format

>  <published_units>  (462) 
uM

>  <pchembl_value>  (462) 
5.82

>  <published_type>  (462) 
IC50

>  <activity_comment>  (462) 
None

$$$$

     RDKit          

 22 25  0  0  0  0  0  0  0  0999 V2000
    0.0000    0.0000    0.0000 C   0  0  0  0  0  0  0  0  0  0  0  0
    0.0000    0.0000    0.0000 C   0  0  0  0  0  0  0  0  0  0  0  0
    0.0000    0.0000    0.0000 C   0  0  0  0  0  0  0  0  0  0  0  0
    0.0000    0.0000    0.0000 N   0  0  0  0  0  0  0  0  0  0  0  0
    0.0000    0.0000    0.0000 N   0  0  0  0  0  0  0  0  0  0  0  0
    0.0000    0.0000    0.0000 C   0  0  0  0  0  0  0  0  0  0  0  0
    0.0000    0.0000    0.0000 C   0  0  0  0  0  0  0  0  0  0  0  0
    0.0000    0.0000    0.0000 C   0  0  0  0  0  0  0  0  0  0  0  0
    0.0000    0.0000    0.0000 C   0  0  0  0  0  0  0  0  0  0  0  0
    0.0000    0.0000    0.0000 C   0  0  0  0  0  0  0  0  0  0  0  0
    0.0000    0.0000    0.0000 C   0  0  0  0  0  0  0  0  0  0  0  0
    0.0000    0.0000    0.0000 C   0  0  0  0  0  0  0  0  0  0  0  0
    0.0000    0.0000    0.0000 N   0  0  0  0  0  0  0  0  0  0  0  0
    0.0000    0.0000    0.0000 C   0  0  0  0  0  0  0  0  0  0  0  0
    0.0000    0.0000    0.0000 C   0  0  0  0  0  0  0  0  0  0  0  0
    0.0000    0.0000    0.0000 C   0  0  0  0  0  0  0  0  0  0  0  0
    0.0000    0.0000    0.0000 C   0  0  0  0  0  0  0  0  0  0  0  0
    0.0000    0.0000    0.0000 N   0  0  0  0  0  0  0  0  0  0  0  0
    0.0000    0.0000    0.0000 N   0  0  0  0  0  0  0  0  0  0  0  0
    0.0000    0.0000    0.0000 C   0  0  0  0  0  0  0  0  0  0  0  0
    0.0000    0.0000    0.0000 N   0  0  0  0  0  0  0  0  0  0  0  0
    0.0000    0.0000    0.0000 C   0  0  0  0  0  0  0  0  0  0  0  0
  1  2  1  0
  2  3  1  0
  2  4  1  0
  4  5  1  0
  5  6  2  0
  6  7  1  0
  7  8  2  0
  8  9  1  0
  9 10  2  0
 10 11  1  0
 11 12  2  0
 12 13  1  0
 13 14  1  0
 14 15  2  0
  6 16  1  0
 16 17  2  0
 17 18  1  0
 17 19  1  0
 19 20  2  0
 20 21  1  0
 21 22  2  0
 22  4  1  0
 15  7  1  0
 14 10  1  0
 22 16  1  0
M  END
>  <pIC50>  (463) 
6.7

>  <ChEMBL_ID>  (463) 
CHEMBL1242574

>  <document_journal>  (463) 
Nat. Chem. Biol.

>  <bao_endpoint>  (463) 
BAO_0000190

>  <potential_duplicate>  (463) 
False

>  <uo_units>  (463) 
UO_0000065

>  <canonical_smiles>  (463) 
CC(C)n1nc(c2ccc3cc[nH]c3c2)c4c(N)ncnc14

>  <parent_molecule_chembl_id>  (463) 
CHEMBL1242574

>  <assay_type>  (463) 
B

>  <src_id>  (463) 
1

>  <ligand_efficiency>  (463) 
{u'le': u'0.42', u'bei': u'22.91', u'sei': u'7.84', u'lle': u'3.84'}

>  <standard_flag>  (463) 
True

>  <molecule_chembl_id>  (463) 
CHEMBL1242574

>  <target_organism>  (463) 
Homo sapiens

>  <standard_units>  (463) 
nM

>  <record_id>  (463) 
953839

>  <document_chembl_id>  (463) 
CHEMBL1240340

>  <bao_format>  (463) 
BAO_0000357

>  <data_validity_description>  (463) 
None

>  <activity_id>  (463) 
3444427

>  <standard_type>  (463) 
IC50

>  <target_chembl_id>  (463) 
CHEMBL1862

>  <data_validity_comment>  (463) 
None

>  <published_value>  (463) 
0.2

>  <document_year>  (463) 
2008

>  <target_pref_name>  (463) 
Tyrosine-protein kinase ABL

>  <assay_chembl_id>  (463) 
CHEMBL1243972

>  <standard_relation>  (463) 
=

>  <assay_description>  (463) 
Inhibition of recombinant c-Abl by radioactive phosphotransfer assay in presence of 10 uM ATP

>  <published_relation>  (463) 
=

>  <standard_value>  (463) 
200

>  <qudt_units>  (463) 
http://www.openphacts.org/units/Nanomolar

>  <target_tax_id>  (463) 
9606

>  <bao_label>  (463) 
single protein format

>  <published_units>  (463) 
uM

>  <pchembl_value>  (463) 
6.7

>  <published_type>  (463) 
IC50

>  <activity_comment>  (463) 
None

$$$$

     RDKit          

 24 28  0  0  0  0  0  0  0  0999 V2000
    0.0000    0.0000    0.0000 N   0  0  0  0  0  0  0  0  0  0  0  0
    0.0000    0.0000    0.0000 C   0  0  0  0  0  0  0  0  0  0  0  0
    0.0000    0.0000    0.0000 N   0  0  0  0  0  0  0  0  0  0  0  0
    0.0000    0.0000    0.0000 C   0  0  0  0  0  0  0  0  0  0  0  0
    0.0000    0.0000    0.0000 N   0  0  0  0  0  0  0  0  0  0  0  0
    0.0000    0.0000    0.0000 C   0  0  0  0  0  0  0  0  0  0  0  0
    0.0000    0.0000    0.0000 C   0  0  0  0  0  0  0  0  0  0  0  0
    0.0000    0.0000    0.0000 C   0  0  0  0  0  0  0  0  0  0  0  0
    0.0000    0.0000    0.0000 N   0  0  0  0  0  0  0  0  0  0  0  0
    0.0000    0.0000    0.0000 N   0  0  0  0  0  0  0  0  0  0  0  0
    0.0000    0.0000    0.0000 C   0  0  0  0  0  0  0  0  0  0  0  0
    0.0000    0.0000    0.0000 C   0  0  0  0  0  0  0  0  0  0  0  0
    0.0000    0.0000    0.0000 C   0  0  0  0  0  0  0  0  0  0  0  0
    0.0000    0.0000    0.0000 C   0  0  0  0  0  0  0  0  0  0  0  0
    0.0000    0.0000    0.0000 C   0  0  0  0  0  0  0  0  0  0  0  0
    0.0000    0.0000    0.0000 C   0  0  0  0  0  0  0  0  0  0  0  0
    0.0000    0.0000    0.0000 C   0  0  0  0  0  0  0  0  0  0  0  0
    0.0000    0.0000    0.0000 C   0  0  0  0  0  0  0  0  0  0  0  0
    0.0000    0.0000    0.0000 C   0  0  0  0  0  0  0  0  0  0  0  0
    0.0000    0.0000    0.0000 C   0  0  0  0  0  0  0  0  0  0  0  0
    0.0000    0.0000    0.0000 C   0  0  0  0  0  0  0  0  0  0  0  0
    0.0000    0.0000    0.0000 N   0  0  0  0  0  0  0  0  0  0  0  0
    0.0000    0.0000    0.0000 C   0  0  0  0  0  0  0  0  0  0  0  0
    0.0000    0.0000    0.0000 C   0  0  0  0  0  0  0  0  0  0  0  0
  1  2  1  0
  2  3  2  0
  3  4  1  0
  4  5  2  0
  5  6  1  0
  6  7  2  0
  7  8  1  0
  8  9  2  0
  9 10  1  0
 10 11  1  0
 11 12  1  0
 12 13  1  0
 13 14  1  0
 14 15  1  0
  8 16  1  0
 16 17  2  0
 17 18  1  0
 18 19  2  0
 19 20  1  0
 20 21  2  0
 21 22  1  0
 22 23  1  0
 23 24  2  0
  7  2  1  0
 10  6  1  0
 15 11  1  0
 24 16  1  0
 23 19  1  0
M  END
>  <pIC50>  (464) 
6.78

>  <ChEMBL_ID>  (464) 
CHEMBL1242664

>  <document_journal>  (464) 
Nat. Chem. Biol.

>  <bao_endpoint>  (464) 
BAO_0000190

>  <potential_duplicate>  (464) 
False

>  <uo_units>  (464) 
UO_0000065

>  <canonical_smiles>  (464) 
Nc1ncnc2c1c(nn2C3CCCC3)c4ccc5cc[nH]c5c4

>  <parent_molecule_chembl_id>  (464) 
CHEMBL1242664

>  <assay_type>  (464) 
B

>  <src_id>  (464) 
1

>  <ligand_efficiency>  (464) 
{u'le': u'0.39', u'bei': u'21.3', u'sei': u'7.94', u'lle': u'3.24'}

>  <standard_flag>  (464) 
True

>  <molecule_chembl_id>  (464) 
CHEMBL1242664

>  <target_organism>  (464) 
Homo sapiens

>  <standard_units>  (464) 
nM

>  <record_id>  (464) 
953966

>  <document_chembl_id>  (464) 
CHEMBL1240340

>  <bao_format>  (464) 
BAO_0000357

>  <data_validity_description>  (464) 
None

>  <activity_id>  (464) 
3444441

>  <standard_type>  (464) 
IC50

>  <target_chembl_id>  (464) 
CHEMBL1862

>  <data_validity_comment>  (464) 
None

>  <published_value>  (464) 
0.165

>  <document_year>  (464) 
2008

>  <target_pref_name>  (464) 
Tyrosine-protein kinase ABL

>  <assay_chembl_id>  (464) 
CHEMBL1243972

>  <standard_relation>  (464) 
=

>  <assay_description>  (464) 
Inhibition of recombinant c-Abl by radioactive phosphotransfer assay in presence of 10 uM ATP

>  <published_relation>  (464) 
=

>  <standard_value>  (464) 
165

>  <qudt_units>  (464) 
http://www.openphacts.org/units/Nanomolar

>  <target_tax_id>  (464) 
9606

>  <bao_label>  (464) 
single protein format

>  <published_units>  (464) 
uM

>  <pchembl_value>  (464) 
6.78

>  <published_type>  (464) 
IC50

>  <activity_comment>  (464) 
None

$$$$

     RDKit          

 22 25  0  0  0  0  0  0  0  0999 V2000
    0.0000    0.0000    0.0000 C   0  0  0  0  0  0  0  0  0  0  0  0
    0.0000    0.0000    0.0000 C   0  0  0  0  0  0  0  0  0  0  0  0
    0.0000    0.0000    0.0000 C   0  0  0  0  0  0  0  0  0  0  0  0
    0.0000    0.0000    0.0000 N   0  0  0  0  0  0  0  0  0  0  0  0
    0.0000    0.0000    0.0000 N   0  0  0  0  0  0  0  0  0  0  0  0
    0.0000    0.0000    0.0000 C   0  0  0  0  0  0  0  0  0  0  0  0
    0.0000    0.0000    0.0000 C   0  0  0  0  0  0  0  0  0  0  0  0
    0.0000    0.0000    0.0000 C   0  0  0  0  0  0  0  0  0  0  0  0
    0.0000    0.0000    0.0000 C   0  0  0  0  0  0  0  0  0  0  0  0
    0.0000    0.0000    0.0000 N   0  0  0  0  0  0  0  0  0  0  0  0
    0.0000    0.0000    0.0000 C   0  0  0  0  0  0  0  0  0  0  0  0
    0.0000    0.0000    0.0000 C   0  0  0  0  0  0  0  0  0  0  0  0
    0.0000    0.0000    0.0000 N   0  0  0  0  0  0  0  0  0  0  0  0
    0.0000    0.0000    0.0000 C   0  0  0  0  0  0  0  0  0  0  0  0
    0.0000    0.0000    0.0000 C   0  0  0  0  0  0  0  0  0  0  0  0
    0.0000    0.0000    0.0000 C   0  0  0  0  0  0  0  0  0  0  0  0
    0.0000    0.0000    0.0000 C   0  0  0  0  0  0  0  0  0  0  0  0
    0.0000    0.0000    0.0000 N   0  0  0  0  0  0  0  0  0  0  0  0
    0.0000    0.0000    0.0000 N   0  0  0  0  0  0  0  0  0  0  0  0
    0.0000    0.0000    0.0000 C   0  0  0  0  0  0  0  0  0  0  0  0
    0.0000    0.0000    0.0000 N   0  0  0  0  0  0  0  0  0  0  0  0
    0.0000    0.0000    0.0000 C   0  0  0  0  0  0  0  0  0  0  0  0
  1  2  1  0
  2  3  1  0
  2  4  1  0
  4  5  1  0
  5  6  2  0
  6  7  1  0
  7  8  1  0
  8  9  2  0
  9 10  1  0
 10 11  1  0
 11 12  2  0
 12 13  1  0
 13 14  2  0
 14 15  1  0
  6 16  1  0
 16 17  2  0
 17 18  1  0
 17 19  1  0
 19 20  2  0
 20 21  1  0
 21 22  2  0
 22  4  1  0
 15  7  2  0
 14 10  1  0
 22 16  1  0
M  END
>  <pIC50>  (465) 
4.85

>  <ChEMBL_ID>  (465) 
CHEMBL1242665

>  <document_journal>  (465) 
Nat. Chem. Biol.

>  <bao_endpoint>  (465) 
BAO_0000190

>  <potential_duplicate>  (465) 
False

>  <uo_units>  (465) 
UO_0000065

>  <canonical_smiles>  (465) 
CC(C)n1nc(c2ccn3ccnc3c2)c4c(N)ncnc14

>  <parent_molecule_chembl_id>  (465) 
CHEMBL1242665

>  <assay_type>  (465) 
B

>  <src_id>  (465) 
1

>  <ligand_efficiency>  (465) 
{u'le': u'0.3', u'bei': u'16.55', u'sei': u'5.58', u'lle': u'3.54'}

>  <standard_flag>  (465) 
True

>  <molecule_chembl_id>  (465) 
CHEMBL1242665

>  <target_organism>  (465) 
Homo sapiens

>  <standard_units>  (465) 
nM

>  <record_id>  (465) 
953967

>  <document_chembl_id>  (465) 
CHEMBL1240340

>  <bao_format>  (465) 
BAO_0000357

>  <data_validity_description>  (465) 
None

>  <activity_id>  (465) 
3444455

>  <standard_type>  (465) 
IC50

>  <target_chembl_id>  (465) 
CHEMBL1862

>  <data_validity_comment>  (465) 
None

>  <published_value>  (465) 
14

>  <document_year>  (465) 
2008

>  <target_pref_name>  (465) 
Tyrosine-protein kinase ABL

>  <assay_chembl_id>  (465) 
CHEMBL1243972

>  <standard_relation>  (465) 
=

>  <assay_description>  (465) 
Inhibition of recombinant c-Abl by radioactive phosphotransfer assay in presence of 10 uM ATP

>  <published_relation>  (465) 
=

>  <standard_value>  (465) 
14000

>  <qudt_units>  (465) 
http://www.openphacts.org/units/Nanomolar

>  <target_tax_id>  (465) 
9606

>  <bao_label>  (465) 
single protein format

>  <published_units>  (465) 
uM

>  <pchembl_value>  (465) 
4.85

>  <published_type>  (465) 
IC50

>  <activity_comment>  (465) 
None

$$$$

     RDKit          

 24 27  0  0  0  0  0  0  0  0999 V2000
    0.0000    0.0000    0.0000 C   0  0  0  0  0  0  0  0  0  0  0  0
    0.0000    0.0000    0.0000 C   0  0  0  0  0  0  0  0  0  0  0  0
    0.0000    0.0000    0.0000 C   0  0  0  0  0  0  0  0  0  0  0  0
    0.0000    0.0000    0.0000 N   0  0  0  0  0  0  0  0  0  0  0  0
    0.0000    0.0000    0.0000 N   0  0  0  0  0  0  0  0  0  0  0  0
    0.0000    0.0000    0.0000 C   0  0  0  0  0  0  0  0  0  0  0  0
    0.0000    0.0000    0.0000 C   0  0  0  0  0  0  0  0  0  0  0  0
    0.0000    0.0000    0.0000 C   0  0  0  0  0  0  0  0  0  0  0  0
    0.0000    0.0000    0.0000 C   0  0  0  0  0  0  0  0  0  0  0  0
    0.0000    0.0000    0.0000 C   0  0  0  0  0  0  0  0  0  0  0  0
    0.0000    0.0000    0.0000 C   0  0  0  0  0  0  0  0  0  0  0  0
    0.0000    0.0000    0.0000 C   0  0  0  0  0  0  0  0  0  0  0  0
    0.0000    0.0000    0.0000 O   0  0  0  0  0  0  0  0  0  0  0  0
    0.0000    0.0000    0.0000 C   0  0  0  0  0  0  0  0  0  0  0  0
    0.0000    0.0000    0.0000 N   0  0  0  0  0  0  0  0  0  0  0  0
    0.0000    0.0000    0.0000 C   0  0  0  0  0  0  0  0  0  0  0  0
    0.0000    0.0000    0.0000 C   0  0  0  0  0  0  0  0  0  0  0  0
    0.0000    0.0000    0.0000 C   0  0  0  0  0  0  0  0  0  0  0  0
    0.0000    0.0000    0.0000 C   0  0  0  0  0  0  0  0  0  0  0  0
    0.0000    0.0000    0.0000 N   0  0  0  0  0  0  0  0  0  0  0  0
    0.0000    0.0000    0.0000 N   0  0  0  0  0  0  0  0  0  0  0  0
    0.0000    0.0000    0.0000 C   0  0  0  0  0  0  0  0  0  0  0  0
    0.0000    0.0000    0.0000 N   0  0  0  0  0  0  0  0  0  0  0  0
    0.0000    0.0000    0.0000 C   0  0  0  0  0  0  0  0  0  0  0  0
  1  2  1  0
  2  3  1  0
  2  4  1  0
  4  5  1  0
  5  6  2  0
  6  7  1  0
  7  8  2  0
  8  9  1  0
  9 10  2  0
 10 11  1  0
 11 12  1  0
 12 13  2  0
 11 14  2  0
 14 15  1  0
 15 16  1  0
 16 17  2  0
  6 18  1  0
 18 19  2  0
 19 20  1  0
 19 21  1  0
 21 22  2  0
 22 23  1  0
 23 24  2  0
 24  4  1  0
 17  7  1  0
 16 10  1  0
 24 18  1  0
M  END
>  <pIC50>  (466) 
4.92

>  <ChEMBL_ID>  (466) 
CHEMBL1242666

>  <document_journal>  (466) 
Nat. Chem. Biol.

>  <bao_endpoint>  (466) 
BAO_0000190

>  <potential_duplicate>  (466) 
False

>  <uo_units>  (466) 
UO_0000065

>  <canonical_smiles>  (466) 
CC(C)n1nc(c2ccc3c(C=O)c[nH]c3c2)c4c(N)ncnc14

>  <parent_molecule_chembl_id>  (466) 
CHEMBL1242666

>  <assay_type>  (466) 
B

>  <src_id>  (466) 
1

>  <ligand_efficiency>  (466) 
{u'le': u'0.28', u'bei': u'15.36', u'sei': u'4.8', u'lle': u'2.3'}

>  <standard_flag>  (466) 
True

>  <molecule_chembl_id>  (466) 
CHEMBL1242666

>  <target_organism>  (466) 
Homo sapiens

>  <standard_units>  (466) 
nM

>  <record_id>  (466) 
953968

>  <document_chembl_id>  (466) 
CHEMBL1240340

>  <bao_format>  (466) 
BAO_0000357

>  <data_validity_description>  (466) 
None

>  <activity_id>  (466) 
3444469

>  <standard_type>  (466) 
IC50

>  <target_chembl_id>  (466) 
CHEMBL1862

>  <data_validity_comment>  (466) 
None

>  <published_value>  (466) 
12

>  <document_year>  (466) 
2008

>  <target_pref_name>  (466) 
Tyrosine-protein kinase ABL

>  <assay_chembl_id>  (466) 
CHEMBL1243972

>  <standard_relation>  (466) 
=

>  <assay_description>  (466) 
Inhibition of recombinant c-Abl by radioactive phosphotransfer assay in presence of 10 uM ATP

>  <published_relation>  (466) 
=

>  <standard_value>  (466) 
12000

>  <qudt_units>  (466) 
http://www.openphacts.org/units/Nanomolar

>  <target_tax_id>  (466) 
9606

>  <bao_label>  (466) 
single protein format

>  <published_units>  (466) 
uM

>  <pchembl_value>  (466) 
4.92

>  <published_type>  (466) 
IC50

>  <activity_comment>  (466) 
None

$$$$

     RDKit          

 22 25  0  0  0  0  0  0  0  0999 V2000
    0.0000    0.0000    0.0000 C   0  0  0  0  0  0  0  0  0  0  0  0
    0.0000    0.0000    0.0000 C   0  0  0  0  0  0  0  0  0  0  0  0
    0.0000    0.0000    0.0000 C   0  0  0  0  0  0  0  0  0  0  0  0
    0.0000    0.0000    0.0000 N   0  0  0  0  0  0  0  0  0  0  0  0
    0.0000    0.0000    0.0000 N   0  0  0  0  0  0  0  0  0  0  0  0
    0.0000    0.0000    0.0000 C   0  0  0  0  0  0  0  0  0  0  0  0
    0.0000    0.0000    0.0000 C   0  0  0  0  0  0  0  0  0  0  0  0
    0.0000    0.0000    0.0000 C   0  0  0  0  0  0  0  0  0  0  0  0
    0.0000    0.0000    0.0000 C   0  0  0  0  0  0  0  0  0  0  0  0
    0.0000    0.0000    0.0000 C   0  0  0  0  0  0  0  0  0  0  0  0
    0.0000    0.0000    0.0000 C   0  0  0  0  0  0  0  0  0  0  0  0
    0.0000    0.0000    0.0000 N   0  0  0  0  0  0  0  0  0  0  0  0
    0.0000    0.0000    0.0000 C   0  0  0  0  0  0  0  0  0  0  0  0
    0.0000    0.0000    0.0000 C   0  0  0  0  0  0  0  0  0  0  0  0
    0.0000    0.0000    0.0000 C   0  0  0  0  0  0  0  0  0  0  0  0
    0.0000    0.0000    0.0000 C   0  0  0  0  0  0  0  0  0  0  0  0
    0.0000    0.0000    0.0000 C   0  0  0  0  0  0  0  0  0  0  0  0
    0.0000    0.0000    0.0000 N   0  0  0  0  0  0  0  0  0  0  0  0
    0.0000    0.0000    0.0000 N   0  0  0  0  0  0  0  0  0  0  0  0
    0.0000    0.0000    0.0000 C   0  0  0  0  0  0  0  0  0  0  0  0
    0.0000    0.0000    0.0000 N   0  0  0  0  0  0  0  0  0  0  0  0
    0.0000    0.0000    0.0000 C   0  0  0  0  0  0  0  0  0  0  0  0
  1  2  1  0
  2  3  1  0
  2  4  1  0
  4  5  1  0
  5  6  2  0
  6  7  1  0
  7  8  2  0
  8  9  1  0
  9 10  2  0
 10 11  1  0
 11 12  1  0
 12 13  1  0
 13 14  2  0
 14 15  1  0
  6 16  1  0
 16 17  2  0
 17 18  1  0
 17 19  1  0
 19 20  2  0
 20 21  1  0
 21 22  2  0
 22  4  1  0
 15  7  1  0
 15 11  2  0
 22 16  1  0
M  END
>  <pIC50>  (467) 
5.59

>  <ChEMBL_ID>  (467) 
CHEMBL1242757

>  <document_journal>  (467) 
Nat. Chem. Biol.

>  <bao_endpoint>  (467) 
BAO_0000190

>  <potential_duplicate>  (467) 
False

>  <uo_units>  (467) 
UO_0000065

>  <canonical_smiles>  (467) 
CC(C)n1nc(c2cccc3[nH]ccc23)c4c(N)ncnc14

>  <parent_molecule_chembl_id>  (467) 
CHEMBL1242757

>  <assay_type>  (467) 
B

>  <src_id>  (467) 
1

>  <ligand_efficiency>  (467) 
{u'le': u'0.35', u'bei': u'19.1', u'sei': u'6.54', u'lle': u'2.73'}

>  <standard_flag>  (467) 
True

>  <molecule_chembl_id>  (467) 
CHEMBL1242757

>  <target_organism>  (467) 
Homo sapiens

>  <standard_units>  (467) 
nM

>  <record_id>  (467) 
954099

>  <document_chembl_id>  (467) 
CHEMBL1240340

>  <bao_format>  (467) 
BAO_0000357

>  <data_validity_description>  (467) 
None

>  <activity_id>  (467) 
3444483

>  <standard_type>  (467) 
IC50

>  <target_chembl_id>  (467) 
CHEMBL1862

>  <data_validity_comment>  (467) 
None

>  <published_value>  (467) 
2.6

>  <document_year>  (467) 
2008

>  <target_pref_name>  (467) 
Tyrosine-protein kinase ABL

>  <assay_chembl_id>  (467) 
CHEMBL1243972

>  <standard_relation>  (467) 
=

>  <assay_description>  (467) 
Inhibition of recombinant c-Abl by radioactive phosphotransfer assay in presence of 10 uM ATP

>  <published_relation>  (467) 
=

>  <standard_value>  (467) 
2600

>  <qudt_units>  (467) 
http://www.openphacts.org/units/Nanomolar

>  <target_tax_id>  (467) 
9606

>  <bao_label>  (467) 
single protein format

>  <published_units>  (467) 
uM

>  <pchembl_value>  (467) 
5.59

>  <published_type>  (467) 
IC50

>  <activity_comment>  (467) 
None

$$$$

     RDKit          

 24 28  0  0  0  0  0  0  0  0999 V2000
    0.0000    0.0000    0.0000 N   0  0  0  0  0  0  0  0  0  0  0  0
    0.0000    0.0000    0.0000 C   0  0  0  0  0  0  0  0  0  0  0  0
    0.0000    0.0000    0.0000 N   0  0  0  0  0  0  0  0  0  0  0  0
    0.0000    0.0000    0.0000 C   0  0  0  0  0  0  0  0  0  0  0  0
    0.0000    0.0000    0.0000 N   0  0  0  0  0  0  0  0  0  0  0  0
    0.0000    0.0000    0.0000 C   0  0  0  0  0  0  0  0  0  0  0  0
    0.0000    0.0000    0.0000 C   0  0  0  0  0  0  0  0  0  0  0  0
    0.0000    0.0000    0.0000 C   0  0  0  0  0  0  0  0  0  0  0  0
    0.0000    0.0000    0.0000 N   0  0  0  0  0  0  0  0  0  0  0  0
    0.0000    0.0000    0.0000 N   0  0  0  0  0  0  0  0  0  0  0  0
    0.0000    0.0000    0.0000 C   0  0  0  0  0  0  0  0  0  0  0  0
    0.0000    0.0000    0.0000 C   0  0  0  0  0  0  0  0  0  0  0  0
    0.0000    0.0000    0.0000 C   0  0  0  0  0  0  0  0  0  0  0  0
    0.0000    0.0000    0.0000 C   0  0  0  0  0  0  0  0  0  0  0  0
    0.0000    0.0000    0.0000 C   0  0  0  0  0  0  0  0  0  0  0  0
    0.0000    0.0000    0.0000 C   0  0  0  0  0  0  0  0  0  0  0  0
    0.0000    0.0000    0.0000 C   0  0  0  0  0  0  0  0  0  0  0  0
    0.0000    0.0000    0.0000 C   0  0  0  0  0  0  0  0  0  0  0  0
    0.0000    0.0000    0.0000 C   0  0  0  0  0  0  0  0  0  0  0  0
    0.0000    0.0000    0.0000 C   0  0  0  0  0  0  0  0  0  0  0  0
    0.0000    0.0000    0.0000 N   0  0  0  0  0  0  0  0  0  0  0  0
    0.0000    0.0000    0.0000 C   0  0  0  0  0  0  0  0  0  0  0  0
    0.0000    0.0000    0.0000 C   0  0  0  0  0  0  0  0  0  0  0  0
    0.0000    0.0000    0.0000 C   0  0  0  0  0  0  0  0  0  0  0  0
  1  2  1  0
  2  3  2  0
  3  4  1  0
  4  5  2  0
  5  6  1  0
  6  7  2  0
  7  8  1  0
  8  9  2  0
  9 10  1  0
 10 11  1  0
 11 12  1  0
 12 13  1  0
 13 14  1  0
 14 15  1  0
  8 16  1  0
 16 17  2  0
 17 18  1  0
 18 19  2  0
 19 20  1  0
 20 21  1  0
 21 22  1  0
 22 23  2  0
 23 24  1  0
  7  2  1  0
 10  6  1  0
 15 11  1  0
 24 16  1  0
 24 20  2  0
M  END
>  <pIC50>  (468) 
5.66

>  <ChEMBL_ID>  (468) 
CHEMBL1242758

>  <document_journal>  (468) 
Nat. Chem. Biol.

>  <bao_endpoint>  (468) 
BAO_0000190

>  <potential_duplicate>  (468) 
False

>  <uo_units>  (468) 
UO_0000065

>  <canonical_smiles>  (468) 
Nc1ncnc2c1c(nn2C3CCCC3)c4cccc5[nH]ccc45

>  <parent_molecule_chembl_id>  (468) 
CHEMBL1242758

>  <assay_type>  (468) 
B

>  <src_id>  (468) 
1

>  <ligand_efficiency>  (468) 
{u'le': u'0.32', u'bei': u'17.77', u'sei': u'6.62', u'lle': u'2.12'}

>  <standard_flag>  (468) 
True

>  <molecule_chembl_id>  (468) 
CHEMBL1242758

>  <target_organism>  (468) 
Homo sapiens

>  <standard_units>  (468) 
nM

>  <record_id>  (468) 
954100

>  <document_chembl_id>  (468) 
CHEMBL1240340

>  <bao_format>  (468) 
BAO_0000357

>  <data_validity_description>  (468) 
None

>  <activity_id>  (468) 
3444497

>  <standard_type>  (468) 
IC50

>  <target_chembl_id>  (468) 
CHEMBL1862

>  <data_validity_comment>  (468) 
None

>  <published_value>  (468) 
2.2

>  <document_year>  (468) 
2008

>  <target_pref_name>  (468) 
Tyrosine-protein kinase ABL

>  <assay_chembl_id>  (468) 
CHEMBL1243972

>  <standard_relation>  (468) 
=

>  <assay_description>  (468) 
Inhibition of recombinant c-Abl by radioactive phosphotransfer assay in presence of 10 uM ATP

>  <published_relation>  (468) 
=

>  <standard_value>  (468) 
2200

>  <qudt_units>  (468) 
http://www.openphacts.org/units/Nanomolar

>  <target_tax_id>  (468) 
9606

>  <bao_label>  (468) 
single protein format

>  <published_units>  (468) 
uM

>  <pchembl_value>  (468) 
5.66

>  <published_type>  (468) 
IC50

>  <activity_comment>  (468) 
None

$$$$

     RDKit          

 29 32  0  0  0  0  0  0  0  0999 V2000
    0.0000    0.0000    0.0000 C   0  0  0  0  0  0  0  0  0  0  0  0
    0.0000    0.0000    0.0000 C   0  0  0  0  0  0  0  0  0  0  0  0
    0.0000    0.0000    0.0000 C   0  0  0  0  0  0  0  0  0  0  0  0
    0.0000    0.0000    0.0000 N   0  0  0  0  0  0  0  0  0  0  0  0
    0.0000    0.0000    0.0000 N   0  0  0  0  0  0  0  0  0  0  0  0
    0.0000    0.0000    0.0000 C   0  0  0  0  0  0  0  0  0  0  0  0
    0.0000    0.0000    0.0000 C   0  0  0  0  0  0  0  0  0  0  0  0
    0.0000    0.0000    0.0000 C   0  0  0  0  0  0  0  0  0  0  0  0
    0.0000    0.0000    0.0000 C   0  0  0  0  0  0  0  0  0  0  0  0
    0.0000    0.0000    0.0000 C   0  0  0  0  0  0  0  0  0  0  0  0
    0.0000    0.0000    0.0000 C   0  0  0  0  0  0  0  0  0  0  0  0
    0.0000    0.0000    0.0000 C   0  0  0  0  0  0  0  0  0  0  0  0
    0.0000    0.0000    0.0000 C   0  0  0  0  0  0  0  0  0  0  0  0
    0.0000    0.0000    0.0000 N   0  0  0  0  0  0  0  0  0  0  0  0
    0.0000    0.0000    0.0000 C   0  0  0  0  0  0  0  0  0  0  0  0
    0.0000    0.0000    0.0000 O   0  0  0  0  0  0  0  0  0  0  0  0
    0.0000    0.0000    0.0000 O   0  0  0  0  0  0  0  0  0  0  0  0
    0.0000    0.0000    0.0000 C   0  0  0  0  0  0  0  0  0  0  0  0
    0.0000    0.0000    0.0000 C   0  0  0  0  0  0  0  0  0  0  0  0
    0.0000    0.0000    0.0000 C   0  0  0  0  0  0  0  0  0  0  0  0
    0.0000    0.0000    0.0000 C   0  0  0  0  0  0  0  0  0  0  0  0
    0.0000    0.0000    0.0000 C   0  0  0  0  0  0  0  0  0  0  0  0
    0.0000    0.0000    0.0000 C   0  0  0  0  0  0  0  0  0  0  0  0
    0.0000    0.0000    0.0000 C   0  0  0  0  0  0  0  0  0  0  0  0
    0.0000    0.0000    0.0000 N   0  0  0  0  0  0  0  0  0  0  0  0
    0.0000    0.0000    0.0000 N   0  0  0  0  0  0  0  0  0  0  0  0
    0.0000    0.0000    0.0000 C   0  0  0  0  0  0  0  0  0  0  0  0
    0.0000    0.0000    0.0000 N   0  0  0  0  0  0  0  0  0  0  0  0
    0.0000    0.0000    0.0000 C   0  0  0  0  0  0  0  0  0  0  0  0
  1  2  1  0
  2  3  1  0
  2  4  1  0
  4  5  1  0
  5  6  2  0
  6  7  1  0
  7  8  2  0
  8  9  1  0
  9 10  2  0
 10 11  1  0
 11 12  1  0
 12 13  2  0
 13 14  1  0
 14 15  1  0
 15 16  2  0
 15 17  1  0
 17 18  1  0
 18 19  1  0
 18 20  1  0
 18 21  1  0
 11 22  2  0
  6 23  1  0
 23 24  2  0
 24 25  1  0
 24 26  1  0
 26 27  2  0
 27 28  1  0
 28 29  2  0
 29  4  1  0
 22  7  1  0
 14 10  1  0
 29 23  1  0
M  END
>  <pIC50>  (469) 
6.28

>  <ChEMBL_ID>  (469) 
CHEMBL1242852

>  <document_journal>  (469) 
Nat. Chem. Biol.

>  <bao_endpoint>  (469) 
BAO_0000190

>  <potential_duplicate>  (469) 
False

>  <uo_units>  (469) 
UO_0000065

>  <canonical_smiles>  (469) 
CC(C)n1nc(c2ccc3c(ccn3C(=O)OC(C)(C)C)c2)c4c(N)ncnc14

>  <parent_molecule_chembl_id>  (469) 
CHEMBL1242852

>  <assay_type>  (469) 
B

>  <src_id>  (469) 
1

>  <ligand_efficiency>  (469) 
{u'le': u'0.3', u'bei': u'16', u'sei': u'6.23', u'lle': u'1.86'}

>  <standard_flag>  (469) 
True

>  <molecule_chembl_id>  (469) 
CHEMBL1242852

>  <target_organism>  (469) 
Homo sapiens

>  <standard_units>  (469) 
nM

>  <record_id>  (469) 
954231

>  <document_chembl_id>  (469) 
CHEMBL1240340

>  <bao_format>  (469) 
BAO_0000357

>  <data_validity_description>  (469) 
None

>  <activity_id>  (469) 
3444511

>  <standard_type>  (469) 
IC50

>  <target_chembl_id>  (469) 
CHEMBL1862

>  <data_validity_comment>  (469) 
None

>  <published_value>  (469) 
0.527

>  <document_year>  (469) 
2008

>  <target_pref_name>  (469) 
Tyrosine-protein kinase ABL

>  <assay_chembl_id>  (469) 
CHEMBL1243972

>  <standard_relation>  (469) 
=

>  <assay_description>  (469) 
Inhibition of recombinant c-Abl by radioactive phosphotransfer assay in presence of 10 uM ATP

>  <published_relation>  (469) 
=

>  <standard_value>  (469) 
527

>  <qudt_units>  (469) 
http://www.openphacts.org/units/Nanomolar

>  <target_tax_id>  (469) 
9606

>  <bao_label>  (469) 
single protein format

>  <published_units>  (469) 
uM

>  <pchembl_value>  (469) 
6.28

>  <published_type>  (469) 
IC50

>  <activity_comment>  (469) 
None

$$$$

     RDKit          

 31 35  0  0  0  0  0  0  0  0999 V2000
    0.0000    0.0000    0.0000 C   0  0  0  0  0  0  0  0  0  0  0  0
    0.0000    0.0000    0.0000 C   0  0  0  0  0  0  0  0  0  0  0  0
    0.0000    0.0000    0.0000 C   0  0  0  0  0  0  0  0  0  0  0  0
    0.0000    0.0000    0.0000 C   0  0  0  0  0  0  0  0  0  0  0  0
    0.0000    0.0000    0.0000 O   0  0  0  0  0  0  0  0  0  0  0  0
    0.0000    0.0000    0.0000 C   0  0  0  0  0  0  0  0  0  0  0  0
    0.0000    0.0000    0.0000 O   0  0  0  0  0  0  0  0  0  0  0  0
    0.0000    0.0000    0.0000 N   0  0  0  0  0  0  0  0  0  0  0  0
    0.0000    0.0000    0.0000 C   0  0  0  0  0  0  0  0  0  0  0  0
    0.0000    0.0000    0.0000 C   0  0  0  0  0  0  0  0  0  0  0  0
    0.0000    0.0000    0.0000 C   0  0  0  0  0  0  0  0  0  0  0  0
    0.0000    0.0000    0.0000 C   0  0  0  0  0  0  0  0  0  0  0  0
    0.0000    0.0000    0.0000 C   0  0  0  0  0  0  0  0  0  0  0  0
    0.0000    0.0000    0.0000 C   0  0  0  0  0  0  0  0  0  0  0  0
    0.0000    0.0000    0.0000 C   0  0  0  0  0  0  0  0  0  0  0  0
    0.0000    0.0000    0.0000 C   0  0  0  0  0  0  0  0  0  0  0  0
    0.0000    0.0000    0.0000 C   0  0  0  0  0  0  0  0  0  0  0  0
    0.0000    0.0000    0.0000 N   0  0  0  0  0  0  0  0  0  0  0  0
    0.0000    0.0000    0.0000 N   0  0  0  0  0  0  0  0  0  0  0  0
    0.0000    0.0000    0.0000 C   0  0  0  0  0  0  0  0  0  0  0  0
    0.0000    0.0000    0.0000 C   0  0  0  0  0  0  0  0  0  0  0  0
    0.0000    0.0000    0.0000 C   0  0  0  0  0  0  0  0  0  0  0  0
    0.0000    0.0000    0.0000 C   0  0  0  0  0  0  0  0  0  0  0  0
    0.0000    0.0000    0.0000 C   0  0  0  0  0  0  0  0  0  0  0  0
    0.0000    0.0000    0.0000 C   0  0  0  0  0  0  0  0  0  0  0  0
    0.0000    0.0000    0.0000 N   0  0  0  0  0  0  0  0  0  0  0  0
    0.0000    0.0000    0.0000 C   0  0  0  0  0  0  0  0  0  0  0  0
    0.0000    0.0000    0.0000 N   0  0  0  0  0  0  0  0  0  0  0  0
    0.0000    0.0000    0.0000 C   0  0  0  0  0  0  0  0  0  0  0  0
    0.0000    0.0000    0.0000 N   0  0  0  0  0  0  0  0  0  0  0  0
    0.0000    0.0000    0.0000 C   0  0  0  0  0  0  0  0  0  0  0  0
  1  2  1  0
  2  3  1  0
  2  4  1  0
  2  5  1  0
  5  6  1  0
  6  7  2  0
  6  8  1  0
  8  9  1  0
  9 10  2  0
 10 11  1  0
 11 12  2  0
 12 13  1  0
 13 14  2  0
 14 15  1  0
 15 16  2  0
 13 17  1  0
 17 18  2  0
 18 19  1  0
 19 20  1  0
 20 21  1  0
 21 22  1  0
 22 23  1  0
 23 24  1  0
 19 25  1  0
 25 26  2  0
 26 27  1  0
 27 28  2  0
 28 29  1  0
 29 30  1  0
 29 31  2  0
 16  8  1  0
 16 11  1  0
 31 17  1  0
 24 20  1  0
 31 25  1  0
M  END
>  <pIC50>  (470) 
6.04

>  <ChEMBL_ID>  (470) 
CHEMBL1242853

>  <document_journal>  (470) 
Nat. Chem. Biol.

>  <bao_endpoint>  (470) 
BAO_0000190

>  <potential_duplicate>  (470) 
False

>  <uo_units>  (470) 
UO_0000065

>  <canonical_smiles>  (470) 
CC(C)(C)OC(=O)n1ccc2cc(ccc12)c3nn(C4CCCC4)c5ncnc(N)c35

>  <parent_molecule_chembl_id>  (470) 
CHEMBL1242853

>  <assay_type>  (470) 
B

>  <src_id>  (470) 
1

>  <ligand_efficiency>  (470) 
{u'le': u'0.27', u'bei': u'14.42', u'sei': u'5.99', u'lle': u'0.94'}

>  <standard_flag>  (470) 
True

>  <molecule_chembl_id>  (470) 
CHEMBL1242853

>  <target_organism>  (470) 
Homo sapiens

>  <standard_units>  (470) 
nM

>  <record_id>  (470) 
954232

>  <document_chembl_id>  (470) 
CHEMBL1240340

>  <bao_format>  (470) 
BAO_0000357

>  <data_validity_description>  (470) 
None

>  <activity_id>  (470) 
3444525

>  <standard_type>  (470) 
IC50

>  <target_chembl_id>  (470) 
CHEMBL1862

>  <data_validity_comment>  (470) 
None

>  <published_value>  (470) 
0.92

>  <document_year>  (470) 
2008

>  <target_pref_name>  (470) 
Tyrosine-protein kinase ABL

>  <assay_chembl_id>  (470) 
CHEMBL1243972

>  <standard_relation>  (470) 
=

>  <assay_description>  (470) 
Inhibition of recombinant c-Abl by radioactive phosphotransfer assay in presence of 10 uM ATP

>  <published_relation>  (470) 
=

>  <standard_value>  (470) 
920

>  <qudt_units>  (470) 
http://www.openphacts.org/units/Nanomolar

>  <target_tax_id>  (470) 
9606

>  <bao_label>  (470) 
single protein format

>  <published_units>  (470) 
uM

>  <pchembl_value>  (470) 
6.04

>  <published_type>  (470) 
IC50

>  <activity_comment>  (470) 
None

$$$$

     RDKit          

 22 25  0  0  0  0  0  0  0  0999 V2000
    0.0000    0.0000    0.0000 C   0  0  0  0  0  0  0  0  0  0  0  0
    0.0000    0.0000    0.0000 C   0  0  0  0  0  0  0  0  0  0  0  0
    0.0000    0.0000    0.0000 C   0  0  0  0  0  0  0  0  0  0  0  0
    0.0000    0.0000    0.0000 N   0  0  0  0  0  0  0  0  0  0  0  0
    0.0000    0.0000    0.0000 N   0  0  0  0  0  0  0  0  0  0  0  0
    0.0000    0.0000    0.0000 C   0  0  0  0  0  0  0  0  0  0  0  0
    0.0000    0.0000    0.0000 C   0  0  0  0  0  0  0  0  0  0  0  0
    0.0000    0.0000    0.0000 C   0  0  0  0  0  0  0  0  0  0  0  0
    0.0000    0.0000    0.0000 C   0  0  0  0  0  0  0  0  0  0  0  0
    0.0000    0.0000    0.0000 C   0  0  0  0  0  0  0  0  0  0  0  0
    0.0000    0.0000    0.0000 O   0  0  0  0  0  0  0  0  0  0  0  0
    0.0000    0.0000    0.0000 C   0  0  0  0  0  0  0  0  0  0  0  0
    0.0000    0.0000    0.0000 C   0  0  0  0  0  0  0  0  0  0  0  0
    0.0000    0.0000    0.0000 C   0  0  0  0  0  0  0  0  0  0  0  0
    0.0000    0.0000    0.0000 C   0  0  0  0  0  0  0  0  0  0  0  0
    0.0000    0.0000    0.0000 C   0  0  0  0  0  0  0  0  0  0  0  0
    0.0000    0.0000    0.0000 C   0  0  0  0  0  0  0  0  0  0  0  0
    0.0000    0.0000    0.0000 N   0  0  0  0  0  0  0  0  0  0  0  0
    0.0000    0.0000    0.0000 N   0  0  0  0  0  0  0  0  0  0  0  0
    0.0000    0.0000    0.0000 C   0  0  0  0  0  0  0  0  0  0  0  0
    0.0000    0.0000    0.0000 N   0  0  0  0  0  0  0  0  0  0  0  0
    0.0000    0.0000    0.0000 C   0  0  0  0  0  0  0  0  0  0  0  0
  1  2  1  0
  2  3  1  0
  2  4  1  0
  4  5  1  0
  5  6  2  0
  6  7  1  0
  7  8  2  0
  8  9  1  0
  9 10  2  0
 10 11  1  0
 11 12  1  0
 12 13  2  0
 13 14  1  0
 14 15  2  0
  6 16  1  0
 16 17  2  0
 17 18  1  0
 17 19  1  0
 19 20  2  0
 20 21  1  0
 21 22  2  0
 22  4  1  0
 15  7  1  0
 14 10  1  0
 22 16  1  0
M  END
>  <pIC50>  (471) 
6.27

>  <ChEMBL_ID>  (471) 
CHEMBL1241490

>  <document_journal>  (471) 
Nat. Chem. Biol.

>  <bao_endpoint>  (471) 
BAO_0000190

>  <potential_duplicate>  (471) 
False

>  <uo_units>  (471) 
UO_0000065

>  <canonical_smiles>  (471) 
CC(C)n1nc(c2ccc3occc3c2)c4c(N)ncnc14

>  <parent_molecule_chembl_id>  (471) 
CHEMBL1241490

>  <assay_type>  (471) 
B

>  <src_id>  (471) 
1

>  <ligand_efficiency>  (471) 
{u'le': u'0.39', u'bei': u'21.37', u'sei': u'7.58', u'lle': u'3.4'}

>  <standard_flag>  (471) 
True

>  <molecule_chembl_id>  (471) 
CHEMBL1241490

>  <target_organism>  (471) 
Homo sapiens

>  <standard_units>  (471) 
nM

>  <record_id>  (471) 
952255

>  <document_chembl_id>  (471) 
CHEMBL1240340

>  <bao_format>  (471) 
BAO_0000357

>  <data_validity_description>  (471) 
None

>  <activity_id>  (471) 
3444539

>  <standard_type>  (471) 
IC50

>  <target_chembl_id>  (471) 
CHEMBL1862

>  <data_validity_comment>  (471) 
None

>  <published_value>  (471) 
0.538

>  <document_year>  (471) 
2008

>  <target_pref_name>  (471) 
Tyrosine-protein kinase ABL

>  <assay_chembl_id>  (471) 
CHEMBL1243972

>  <standard_relation>  (471) 
=

>  <assay_description>  (471) 
Inhibition of recombinant c-Abl by radioactive phosphotransfer assay in presence of 10 uM ATP

>  <published_relation>  (471) 
=

>  <standard_value>  (471) 
538

>  <qudt_units>  (471) 
http://www.openphacts.org/units/Nanomolar

>  <target_tax_id>  (471) 
9606

>  <bao_label>  (471) 
single protein format

>  <published_units>  (471) 
uM

>  <pchembl_value>  (471) 
6.27

>  <published_type>  (471) 
IC50

>  <activity_comment>  (471) 
None

$$$$

     RDKit          

 24 28  0  0  0  0  0  0  0  0999 V2000
    0.0000    0.0000    0.0000 N   0  0  0  0  0  0  0  0  0  0  0  0
    0.0000    0.0000    0.0000 C   0  0  0  0  0  0  0  0  0  0  0  0
    0.0000    0.0000    0.0000 N   0  0  0  0  0  0  0  0  0  0  0  0
    0.0000    0.0000    0.0000 C   0  0  0  0  0  0  0  0  0  0  0  0
    0.0000    0.0000    0.0000 N   0  0  0  0  0  0  0  0  0  0  0  0
    0.0000    0.0000    0.0000 C   0  0  0  0  0  0  0  0  0  0  0  0
    0.0000    0.0000    0.0000 C   0  0  0  0  0  0  0  0  0  0  0  0
    0.0000    0.0000    0.0000 C   0  0  0  0  0  0  0  0  0  0  0  0
    0.0000    0.0000    0.0000 N   0  0  0  0  0  0  0  0  0  0  0  0
    0.0000    0.0000    0.0000 N   0  0  0  0  0  0  0  0  0  0  0  0
    0.0000    0.0000    0.0000 C   0  0  0  0  0  0  0  0  0  0  0  0
    0.0000    0.0000    0.0000 C   0  0  0  0  0  0  0  0  0  0  0  0
    0.0000    0.0000    0.0000 C   0  0  0  0  0  0  0  0  0  0  0  0
    0.0000    0.0000    0.0000 C   0  0  0  0  0  0  0  0  0  0  0  0
    0.0000    0.0000    0.0000 C   0  0  0  0  0  0  0  0  0  0  0  0
    0.0000    0.0000    0.0000 C   0  0  0  0  0  0  0  0  0  0  0  0
    0.0000    0.0000    0.0000 C   0  0  0  0  0  0  0  0  0  0  0  0
    0.0000    0.0000    0.0000 C   0  0  0  0  0  0  0  0  0  0  0  0
    0.0000    0.0000    0.0000 C   0  0  0  0  0  0  0  0  0  0  0  0
    0.0000    0.0000    0.0000 O   0  0  0  0  0  0  0  0  0  0  0  0
    0.0000    0.0000    0.0000 C   0  0  0  0  0  0  0  0  0  0  0  0
    0.0000    0.0000    0.0000 C   0  0  0  0  0  0  0  0  0  0  0  0
    0.0000    0.0000    0.0000 C   0  0  0  0  0  0  0  0  0  0  0  0
    0.0000    0.0000    0.0000 C   0  0  0  0  0  0  0  0  0  0  0  0
  1  2  1  0
  2  3  2  0
  3  4  1  0
  4  5  2  0
  5  6  1  0
  6  7  2  0
  7  8  1  0
  8  9  2  0
  9 10  1  0
 10 11  1  0
 11 12  1  0
 12 13  1  0
 13 14  1  0
 14 15  1  0
  8 16  1  0
 16 17  2  0
 17 18  1  0
 18 19  2  0
 19 20  1  0
 20 21  1  0
 21 22  2  0
 22 23  1  0
 23 24  2  0
  7  2  1  0
 10  6  1  0
 15 11  1  0
 24 16  1  0
 23 19  1  0
M  END
>  <pIC50>  (472) 
6.05

>  <ChEMBL_ID>  (472) 
CHEMBL1241491

>  <document_journal>  (472) 
Nat. Chem. Biol.

>  <bao_endpoint>  (472) 
BAO_0000190

>  <potential_duplicate>  (472) 
False

>  <uo_units>  (472) 
UO_0000065

>  <canonical_smiles>  (472) 
Nc1ncnc2c1c(nn2C3CCCC3)c4ccc5occc5c4

>  <parent_molecule_chembl_id>  (472) 
CHEMBL1241491

>  <assay_type>  (472) 
B

>  <src_id>  (472) 
1

>  <ligand_efficiency>  (472) 
{u'le': u'0.34', u'bei': u'18.94', u'sei': u'7.31', u'lle': u'2.5'}

>  <standard_flag>  (472) 
True

>  <molecule_chembl_id>  (472) 
CHEMBL1241491

>  <target_organism>  (472) 
Homo sapiens

>  <standard_units>  (472) 
nM

>  <record_id>  (472) 
952256

>  <document_chembl_id>  (472) 
CHEMBL1240340

>  <bao_format>  (472) 
BAO_0000357

>  <data_validity_description>  (472) 
None

>  <activity_id>  (472) 
3444553

>  <standard_type>  (472) 
IC50

>  <target_chembl_id>  (472) 
CHEMBL1862

>  <data_validity_comment>  (472) 
None

>  <published_value>  (472) 
0.893

>  <document_year>  (472) 
2008

>  <target_pref_name>  (472) 
Tyrosine-protein kinase ABL

>  <assay_chembl_id>  (472) 
CHEMBL1243972

>  <standard_relation>  (472) 
=

>  <assay_description>  (472) 
Inhibition of recombinant c-Abl by radioactive phosphotransfer assay in presence of 10 uM ATP

>  <published_relation>  (472) 
=

>  <standard_value>  (472) 
893

>  <qudt_units>  (472) 
http://www.openphacts.org/units/Nanomolar

>  <target_tax_id>  (472) 
9606

>  <bao_label>  (472) 
single protein format

>  <published_units>  (472) 
uM

>  <pchembl_value>  (472) 
6.05

>  <published_type>  (472) 
IC50

>  <activity_comment>  (472) 
None

$$$$

     RDKit          

 22 25  0  0  0  0  0  0  0  0999 V2000
    0.0000    0.0000    0.0000 C   0  0  0  0  0  0  0  0  0  0  0  0
    0.0000    0.0000    0.0000 C   0  0  0  0  0  0  0  0  0  0  0  0
    0.0000    0.0000    0.0000 C   0  0  0  0  0  0  0  0  0  0  0  0
    0.0000    0.0000    0.0000 N   0  0  0  0  0  0  0  0  0  0  0  0
    0.0000    0.0000    0.0000 N   0  0  0  0  0  0  0  0  0  0  0  0
    0.0000    0.0000    0.0000 C   0  0  0  0  0  0  0  0  0  0  0  0
    0.0000    0.0000    0.0000 C   0  0  0  0  0  0  0  0  0  0  0  0
    0.0000    0.0000    0.0000 C   0  0  0  0  0  0  0  0  0  0  0  0
    0.0000    0.0000    0.0000 C   0  0  0  0  0  0  0  0  0  0  0  0
    0.0000    0.0000    0.0000 C   0  0  0  0  0  0  0  0  0  0  0  0
    0.0000    0.0000    0.0000 N   0  0  0  0  0  0  0  0  0  0  0  0
    0.0000    0.0000    0.0000 O   0  0  0  0  0  0  0  0  0  0  0  0
    0.0000    0.0000    0.0000 N   0  0  0  0  0  0  0  0  0  0  0  0
    0.0000    0.0000    0.0000 C   0  0  0  0  0  0  0  0  0  0  0  0
    0.0000    0.0000    0.0000 C   0  0  0  0  0  0  0  0  0  0  0  0
    0.0000    0.0000    0.0000 C   0  0  0  0  0  0  0  0  0  0  0  0
    0.0000    0.0000    0.0000 C   0  0  0  0  0  0  0  0  0  0  0  0
    0.0000    0.0000    0.0000 N   0  0  0  0  0  0  0  0  0  0  0  0
    0.0000    0.0000    0.0000 N   0  0  0  0  0  0  0  0  0  0  0  0
    0.0000    0.0000    0.0000 C   0  0  0  0  0  0  0  0  0  0  0  0
    0.0000    0.0000    0.0000 N   0  0  0  0  0  0  0  0  0  0  0  0
    0.0000    0.0000    0.0000 C   0  0  0  0  0  0  0  0  0  0  0  0
  1  2  1  0
  2  3  1  0
  2  4  1  0
  4  5  1  0
  5  6  2  0
  6  7  1  0
  7  8  1  0
  8  9  2  0
  9 10  1  0
 10 11  2  0
 11 12  1  0
 12 13  1  0
 13 14  2  0
 14 15  1  0
  6 16  1  0
 16 17  2  0
 17 18  1  0
 17 19  1  0
 19 20  2  0
 20 21  1  0
 21 22  2  0
 22  4  1  0
 15  7  2  0
 14 10  1  0
 22 16  1  0
M  END
>  <pIC50>  (473) 
4.89

>  <ChEMBL_ID>  (473) 
CHEMBL1241492

>  <document_journal>  (473) 
Nat. Chem. Biol.

>  <bao_endpoint>  (473) 
BAO_0000190

>  <potential_duplicate>  (473) 
False

>  <uo_units>  (473) 
UO_0000065

>  <canonical_smiles>  (473) 
CC(C)n1nc(c2ccc3nonc3c2)c4c(N)ncnc14

>  <parent_molecule_chembl_id>  (473) 
CHEMBL1241492

>  <assay_type>  (473) 
B

>  <src_id>  (473) 
1

>  <ligand_efficiency>  (473) 
{u'le': u'0.3', u'bei': u'16.55', u'sei': u'4.5', u'lle': u'2.75'}

>  <standard_flag>  (473) 
True

>  <molecule_chembl_id>  (473) 
CHEMBL1241492

>  <target_organism>  (473) 
Homo sapiens

>  <standard_units>  (473) 
nM

>  <record_id>  (473) 
952257

>  <document_chembl_id>  (473) 
CHEMBL1240340

>  <bao_format>  (473) 
BAO_0000357

>  <data_validity_description>  (473) 
None

>  <activity_id>  (473) 
3444567

>  <standard_type>  (473) 
IC50

>  <target_chembl_id>  (473) 
CHEMBL1862

>  <data_validity_comment>  (473) 
None

>  <published_value>  (473) 
13

>  <document_year>  (473) 
2008

>  <target_pref_name>  (473) 
Tyrosine-protein kinase ABL

>  <assay_chembl_id>  (473) 
CHEMBL1243972

>  <standard_relation>  (473) 
=

>  <assay_description>  (473) 
Inhibition of recombinant c-Abl by radioactive phosphotransfer assay in presence of 10 uM ATP

>  <published_relation>  (473) 
=

>  <standard_value>  (473) 
13000

>  <qudt_units>  (473) 
http://www.openphacts.org/units/Nanomolar

>  <target_tax_id>  (473) 
9606

>  <bao_label>  (473) 
single protein format

>  <published_units>  (473) 
uM

>  <pchembl_value>  (473) 
4.89

>  <published_type>  (473) 
IC50

>  <activity_comment>  (473) 
None

$$$$

     RDKit          

 23 26  0  0  0  0  0  0  0  0999 V2000
    0.0000    0.0000    0.0000 C   0  0  0  0  0  0  0  0  0  0  0  0
    0.0000    0.0000    0.0000 C   0  0  0  0  0  0  0  0  0  0  0  0
    0.0000    0.0000    0.0000 C   0  0  0  0  0  0  0  0  0  0  0  0
    0.0000    0.0000    0.0000 N   0  0  0  0  0  0  0  0  0  0  0  0
    0.0000    0.0000    0.0000 N   0  0  0  0  0  0  0  0  0  0  0  0
    0.0000    0.0000    0.0000 C   0  0  0  0  0  0  0  0  0  0  0  0
    0.0000    0.0000    0.0000 C   0  0  0  0  0  0  0  0  0  0  0  0
    0.0000    0.0000    0.0000 C   0  0  0  0  0  0  0  0  0  0  0  0
    0.0000    0.0000    0.0000 C   0  0  0  0  0  0  0  0  0  0  0  0
    0.0000    0.0000    0.0000 C   0  0  0  0  0  0  0  0  0  0  0  0
    0.0000    0.0000    0.0000 N   0  0  0  0  0  0  0  0  0  0  0  0
    0.0000    0.0000    0.0000 C   0  0  0  0  0  0  0  0  0  0  0  0
    0.0000    0.0000    0.0000 O   0  0  0  0  0  0  0  0  0  0  0  0
    0.0000    0.0000    0.0000 N   0  0  0  0  0  0  0  0  0  0  0  0
    0.0000    0.0000    0.0000 C   0  0  0  0  0  0  0  0  0  0  0  0
    0.0000    0.0000    0.0000 C   0  0  0  0  0  0  0  0  0  0  0  0
    0.0000    0.0000    0.0000 C   0  0  0  0  0  0  0  0  0  0  0  0
    0.0000    0.0000    0.0000 C   0  0  0  0  0  0  0  0  0  0  0  0
    0.0000    0.0000    0.0000 N   0  0  0  0  0  0  0  0  0  0  0  0
    0.0000    0.0000    0.0000 N   0  0  0  0  0  0  0  0  0  0  0  0
    0.0000    0.0000    0.0000 C   0  0  0  0  0  0  0  0  0  0  0  0
    0.0000    0.0000    0.0000 N   0  0  0  0  0  0  0  0  0  0  0  0
    0.0000    0.0000    0.0000 C   0  0  0  0  0  0  0  0  0  0  0  0
  1  2  1  0
  2  3  1  0
  2  4  1  0
  4  5  1  0
  5  6  2  0
  6  7  1  0
  7  8  2  0
  8  9  1  0
  9 10  2  0
 10 11  1  0
 11 12  1  0
 12 13  2  0
 12 14  1  0
 14 15  1  0
 15 16  2  0
  6 17  1  0
 17 18  2  0
 18 19  1  0
 18 20  1  0
 20 21  2  0
 21 22  1  0
 22 23  2  0
 23  4  1  0
 16  7  1  0
 15 10  1  0
 23 17  1  0
M  END
>  <pIC50>  (474) 
5.08

>  <ChEMBL_ID>  (474) 
CHEMBL1241586

>  <document_journal>  (474) 
Nat. Chem. Biol.

>  <bao_endpoint>  (474) 
BAO_0000190

>  <potential_duplicate>  (474) 
False

>  <uo_units>  (474) 
UO_0000065

>  <canonical_smiles>  (474) 
CC(C)n1nc(c2ccc3NC(=O)Nc3c2)c4c(N)ncnc14

>  <parent_molecule_chembl_id>  (474) 
CHEMBL1241586

>  <assay_type>  (474) 
B

>  <src_id>  (474) 
1

>  <ligand_efficiency>  (474) 
{u'le': u'0.3', u'bei': u'16.41', u'sei': u'4.58', u'lle': u'3.65'}

>  <standard_flag>  (474) 
True

>  <molecule_chembl_id>  (474) 
CHEMBL1241586

>  <target_organism>  (474) 
Homo sapiens

>  <standard_units>  (474) 
nM

>  <record_id>  (474) 
952392

>  <document_chembl_id>  (474) 
CHEMBL1240340

>  <bao_format>  (474) 
BAO_0000357

>  <data_validity_description>  (474) 
None

>  <activity_id>  (474) 
3444581

>  <standard_type>  (474) 
IC50

>  <target_chembl_id>  (474) 
CHEMBL1862

>  <data_validity_comment>  (474) 
None

>  <published_value>  (474) 
8.4

>  <document_year>  (474) 
2008

>  <target_pref_name>  (474) 
Tyrosine-protein kinase ABL

>  <assay_chembl_id>  (474) 
CHEMBL1243972

>  <standard_relation>  (474) 
=

>  <assay_description>  (474) 
Inhibition of recombinant c-Abl by radioactive phosphotransfer assay in presence of 10 uM ATP

>  <published_relation>  (474) 
=

>  <standard_value>  (474) 
8400

>  <qudt_units>  (474) 
http://www.openphacts.org/units/Nanomolar

>  <target_tax_id>  (474) 
9606

>  <bao_label>  (474) 
single protein format

>  <published_units>  (474) 
uM

>  <pchembl_value>  (474) 
5.08

>  <published_type>  (474) 
IC50

>  <activity_comment>  (474) 
None

$$$$

     RDKit          

 22 25  0  0  0  0  0  0  0  0999 V2000
    0.0000    0.0000    0.0000 C   0  0  0  0  0  0  0  0  0  0  0  0
    0.0000    0.0000    0.0000 C   0  0  0  0  0  0  0  0  0  0  0  0
    0.0000    0.0000    0.0000 C   0  0  0  0  0  0  0  0  0  0  0  0
    0.0000    0.0000    0.0000 N   0  0  0  0  0  0  0  0  0  0  0  0
    0.0000    0.0000    0.0000 N   0  0  0  0  0  0  0  0  0  0  0  0
    0.0000    0.0000    0.0000 C   0  0  0  0  0  0  0  0  0  0  0  0
    0.0000    0.0000    0.0000 C   0  0  0  0  0  0  0  0  0  0  0  0
    0.0000    0.0000    0.0000 C   0  0  0  0  0  0  0  0  0  0  0  0
    0.0000    0.0000    0.0000 C   0  0  0  0  0  0  0  0  0  0  0  0
    0.0000    0.0000    0.0000 C   0  0  0  0  0  0  0  0  0  0  0  0
    0.0000    0.0000    0.0000 O   0  0  0  0  0  0  0  0  0  0  0  0
    0.0000    0.0000    0.0000 C   0  0  0  0  0  0  0  0  0  0  0  0
    0.0000    0.0000    0.0000 C   0  0  0  0  0  0  0  0  0  0  0  0
    0.0000    0.0000    0.0000 C   0  0  0  0  0  0  0  0  0  0  0  0
    0.0000    0.0000    0.0000 C   0  0  0  0  0  0  0  0  0  0  0  0
    0.0000    0.0000    0.0000 C   0  0  0  0  0  0  0  0  0  0  0  0
    0.0000    0.0000    0.0000 C   0  0  0  0  0  0  0  0  0  0  0  0
    0.0000    0.0000    0.0000 N   0  0  0  0  0  0  0  0  0  0  0  0
    0.0000    0.0000    0.0000 N   0  0  0  0  0  0  0  0  0  0  0  0
    0.0000    0.0000    0.0000 C   0  0  0  0  0  0  0  0  0  0  0  0
    0.0000    0.0000    0.0000 N   0  0  0  0  0  0  0  0  0  0  0  0
    0.0000    0.0000    0.0000 C   0  0  0  0  0  0  0  0  0  0  0  0
  1  2  1  0
  2  3  1  0
  2  4  1  0
  4  5  1  0
  5  6  2  0
  6  7  1  0
  7  8  2  0
  8  9  1  0
  9 10  2  0
 10 11  1  0
 11 12  1  0
 12 13  1  0
 13 14  1  0
 14 15  2  0
  6 16  1  0
 16 17  2  0
 17 18  1  0
 17 19  1  0
 19 20  2  0
 20 21  1  0
 21 22  2  0
 22  4  1  0
 15  7  1  0
 14 10  1  0
 22 16  1  0
M  END
>  <pIC50>  (475) 
5.28

>  <ChEMBL_ID>  (475) 
CHEMBL1241587

>  <document_journal>  (475) 
Nat. Chem. Biol.

>  <bao_endpoint>  (475) 
BAO_0000190

>  <potential_duplicate>  (475) 
False

>  <uo_units>  (475) 
UO_0000065

>  <canonical_smiles>  (475) 
CC(C)n1nc(c2ccc3OCCc3c2)c4c(N)ncnc14

>  <parent_molecule_chembl_id>  (475) 
CHEMBL1241587

>  <assay_type>  (475) 
B

>  <src_id>  (475) 
1

>  <ligand_efficiency>  (475) 
{u'le': u'0.33', u'bei': u'17.89', u'sei': u'6.7', u'lle': u'2.66'}

>  <standard_flag>  (475) 
True

>  <molecule_chembl_id>  (475) 
CHEMBL1241587

>  <target_organism>  (475) 
Homo sapiens

>  <standard_units>  (475) 
nM

>  <record_id>  (475) 
952393

>  <document_chembl_id>  (475) 
CHEMBL1240340

>  <bao_format>  (475) 
BAO_0000357

>  <data_validity_description>  (475) 
None

>  <activity_id>  (475) 
3444595

>  <standard_type>  (475) 
IC50

>  <target_chembl_id>  (475) 
CHEMBL1862

>  <data_validity_comment>  (475) 
None

>  <published_value>  (475) 
5.2

>  <document_year>  (475) 
2008

>  <target_pref_name>  (475) 
Tyrosine-protein kinase ABL

>  <assay_chembl_id>  (475) 
CHEMBL1243972

>  <standard_relation>  (475) 
=

>  <assay_description>  (475) 
Inhibition of recombinant c-Abl by radioactive phosphotransfer assay in presence of 10 uM ATP

>  <published_relation>  (475) 
=

>  <standard_value>  (475) 
5200

>  <qudt_units>  (475) 
http://www.openphacts.org/units/Nanomolar

>  <target_tax_id>  (475) 
9606

>  <bao_label>  (475) 
single protein format

>  <published_units>  (475) 
uM

>  <pchembl_value>  (475) 
5.28

>  <published_type>  (475) 
IC50

>  <activity_comment>  (475) 
None

$$$$

     RDKit          

 23 26  0  0  0  0  0  0  0  0999 V2000
    0.0000    0.0000    0.0000 C   0  0  0  0  0  0  0  0  0  0  0  0
    0.0000    0.0000    0.0000 C   0  0  0  0  0  0  0  0  0  0  0  0
    0.0000    0.0000    0.0000 C   0  0  0  0  0  0  0  0  0  0  0  0
    0.0000    0.0000    0.0000 N   0  0  0  0  0  0  0  0  0  0  0  0
    0.0000    0.0000    0.0000 N   0  0  0  0  0  0  0  0  0  0  0  0
    0.0000    0.0000    0.0000 C   0  0  0  0  0  0  0  0  0  0  0  0
    0.0000    0.0000    0.0000 C   0  0  0  0  0  0  0  0  0  0  0  0
    0.0000    0.0000    0.0000 C   0  0  0  0  0  0  0  0  0  0  0  0
    0.0000    0.0000    0.0000 C   0  0  0  0  0  0  0  0  0  0  0  0
    0.0000    0.0000    0.0000 C   0  0  0  0  0  0  0  0  0  0  0  0
    0.0000    0.0000    0.0000 O   0  0  0  0  0  0  0  0  0  0  0  0
    0.0000    0.0000    0.0000 C   0  0  0  0  0  0  0  0  0  0  0  0
    0.0000    0.0000    0.0000 C   0  0  0  0  0  0  0  0  0  0  0  0
    0.0000    0.0000    0.0000 O   0  0  0  0  0  0  0  0  0  0  0  0
    0.0000    0.0000    0.0000 C   0  0  0  0  0  0  0  0  0  0  0  0
    0.0000    0.0000    0.0000 C   0  0  0  0  0  0  0  0  0  0  0  0
    0.0000    0.0000    0.0000 C   0  0  0  0  0  0  0  0  0  0  0  0
    0.0000    0.0000    0.0000 C   0  0  0  0  0  0  0  0  0  0  0  0
    0.0000    0.0000    0.0000 N   0  0  0  0  0  0  0  0  0  0  0  0
    0.0000    0.0000    0.0000 N   0  0  0  0  0  0  0  0  0  0  0  0
    0.0000    0.0000    0.0000 C   0  0  0  0  0  0  0  0  0  0  0  0
    0.0000    0.0000    0.0000 N   0  0  0  0  0  0  0  0  0  0  0  0
    0.0000    0.0000    0.0000 C   0  0  0  0  0  0  0  0  0  0  0  0
  1  2  1  0
  2  3  1  0
  2  4  1  0
  4  5  1  0
  5  6  2  0
  6  7  1  0
  7  8  2  0
  8  9  1  0
  9 10  2  0
 10 11  1  0
 11 12  1  0
 12 13  1  0
 13 14  1  0
 14 15  1  0
 15 16  2  0
  6 17  1  0
 17 18  2  0
 18 19  1  0
 18 20  1  0
 20 21  2  0
 21 22  1  0
 22 23  2  0
 23  4  1  0
 16  7  1  0
 15 10  1  0
 23 17  1  0
M  END
>  <pIC50>  (476) 
5.89

>  <ChEMBL_ID>  (476) 
CHEMBL1241588

>  <document_journal>  (476) 
Nat. Chem. Biol.

>  <bao_endpoint>  (476) 
BAO_0000190

>  <potential_duplicate>  (476) 
False

>  <uo_units>  (476) 
UO_0000065

>  <canonical_smiles>  (476) 
CC(C)n1nc(c2ccc3OCCOc3c2)c4c(N)ncnc14

>  <parent_molecule_chembl_id>  (476) 
CHEMBL1241588

>  <assay_type>  (476) 
B

>  <src_id>  (476) 
1

>  <ligand_efficiency>  (476) 
{u'le': u'0.35', u'bei': u'18.91', u'sei': u'6.68', u'lle': u'3.54'}

>  <standard_flag>  (476) 
True

>  <molecule_chembl_id>  (476) 
CHEMBL1241588

>  <target_organism>  (476) 
Homo sapiens

>  <standard_units>  (476) 
nM

>  <record_id>  (476) 
952394

>  <document_chembl_id>  (476) 
CHEMBL1240340

>  <bao_format>  (476) 
BAO_0000357

>  <data_validity_description>  (476) 
None

>  <activity_id>  (476) 
3444623

>  <standard_type>  (476) 
IC50

>  <target_chembl_id>  (476) 
CHEMBL1862

>  <data_validity_comment>  (476) 
None

>  <published_value>  (476) 
1.3

>  <document_year>  (476) 
2008

>  <target_pref_name>  (476) 
Tyrosine-protein kinase ABL

>  <assay_chembl_id>  (476) 
CHEMBL1243972

>  <standard_relation>  (476) 
=

>  <assay_description>  (476) 
Inhibition of recombinant c-Abl by radioactive phosphotransfer assay in presence of 10 uM ATP

>  <published_relation>  (476) 
=

>  <standard_value>  (476) 
1300

>  <qudt_units>  (476) 
http://www.openphacts.org/units/Nanomolar

>  <target_tax_id>  (476) 
9606

>  <bao_label>  (476) 
single protein format

>  <published_units>  (476) 
uM

>  <pchembl_value>  (476) 
5.89

>  <published_type>  (476) 
IC50

>  <activity_comment>  (476) 
None

$$$$

     RDKit          

 24 27  0  0  0  0  0  0  0  0999 V2000
    0.0000    0.0000    0.0000 C   0  0  0  0  0  0  0  0  0  0  0  0
    0.0000    0.0000    0.0000 C   0  0  0  0  0  0  0  0  0  0  0  0
    0.0000    0.0000    0.0000 C   0  0  0  0  0  0  0  0  0  0  0  0
    0.0000    0.0000    0.0000 N   0  0  0  0  0  0  0  0  0  0  0  0
    0.0000    0.0000    0.0000 N   0  0  0  0  0  0  0  0  0  0  0  0
    0.0000    0.0000    0.0000 C   0  0  0  0  0  0  0  0  0  0  0  0
    0.0000    0.0000    0.0000 C   0  0  0  0  0  0  0  0  0  0  0  0
    0.0000    0.0000    0.0000 C   0  0  0  0  0  0  0  0  0  0  0  0
    0.0000    0.0000    0.0000 C   0  0  0  0  0  0  0  0  0  0  0  0
    0.0000    0.0000    0.0000 C   0  0  0  0  0  0  0  0  0  0  0  0
    0.0000    0.0000    0.0000 C   0  0  0  0  0  0  0  0  0  0  0  0
    0.0000    0.0000    0.0000 C   0  0  0  0  0  0  0  0  0  0  0  0
    0.0000    0.0000    0.0000 O   0  0  0  0  0  0  0  0  0  0  0  0
    0.0000    0.0000    0.0000 C   0  0  0  0  0  0  0  0  0  0  0  0
    0.0000    0.0000    0.0000 C   0  0  0  0  0  0  0  0  0  0  0  0
    0.0000    0.0000    0.0000 C   0  0  0  0  0  0  0  0  0  0  0  0
    0.0000    0.0000    0.0000 S   0  0  0  0  0  0  0  0  0  0  0  0
    0.0000    0.0000    0.0000 C   0  0  0  0  0  0  0  0  0  0  0  0
    0.0000    0.0000    0.0000 C   0  0  0  0  0  0  0  0  0  0  0  0
    0.0000    0.0000    0.0000 N   0  0  0  0  0  0  0  0  0  0  0  0
    0.0000    0.0000    0.0000 N   0  0  0  0  0  0  0  0  0  0  0  0
    0.0000    0.0000    0.0000 C   0  0  0  0  0  0  0  0  0  0  0  0
    0.0000    0.0000    0.0000 N   0  0  0  0  0  0  0  0  0  0  0  0
    0.0000    0.0000    0.0000 C   0  0  0  0  0  0  0  0  0  0  0  0
  1  2  1  0
  2  3  1  0
  2  4  1  0
  4  5  1  0
  5  6  2  0
  6  7  1  0
  7  8  2  0
  8  9  1  0
  9 10  2  0
 10 11  1  0
 11 12  1  0
 12 13  2  0
 11 14  2  0
 14 15  1  0
 15 16  2  0
 16 17  1  0
  6 18  1  0
 18 19  2  0
 19 20  1  0
 19 21  1  0
 21 22  2  0
 22 23  1  0
 23 24  2  0
 24  4  1  0
 17  7  1  0
 16  9  1  0
 24 18  1  0
M  END
>  <pIC50>  (477) 
4.3

>  <ChEMBL_ID>  (477) 
CHEMBL1241684

>  <document_journal>  (477) 
Nat. Chem. Biol.

>  <bao_endpoint>  (477) 
BAO_0000190

>  <potential_duplicate>  (477) 
False

>  <uo_units>  (477) 
UO_0000065

>  <canonical_smiles>  (477) 
CC(C)n1nc(c2cc3cc(C=O)ccc3s2)c4c(N)ncnc14

>  <parent_molecule_chembl_id>  (477) 
CHEMBL1241684

>  <assay_type>  (477) 
B

>  <src_id>  (477) 
1

>  <ligand_efficiency>  (477) 
{u'le': u'0.24', u'bei': u'12.75', u'sei': u'3.74', u'lle': u'0.82'}

>  <standard_flag>  (477) 
True

>  <molecule_chembl_id>  (477) 
CHEMBL1241684

>  <target_organism>  (477) 
Homo sapiens

>  <standard_units>  (477) 
nM

>  <record_id>  (477) 
952531

>  <document_chembl_id>  (477) 
CHEMBL1240340

>  <bao_format>  (477) 
BAO_0000357

>  <data_validity_description>  (477) 
None

>  <activity_id>  (477) 
3444651

>  <standard_type>  (477) 
IC50

>  <target_chembl_id>  (477) 
CHEMBL1862

>  <data_validity_comment>  (477) 
None

>  <published_value>  (477) 
50

>  <document_year>  (477) 
2008

>  <target_pref_name>  (477) 
Tyrosine-protein kinase ABL

>  <assay_chembl_id>  (477) 
CHEMBL1243972

>  <standard_relation>  (477) 
=

>  <assay_description>  (477) 
Inhibition of recombinant c-Abl by radioactive phosphotransfer assay in presence of 10 uM ATP

>  <published_relation>  (477) 
=

>  <standard_value>  (477) 
50000

>  <qudt_units>  (477) 
http://www.openphacts.org/units/Nanomolar

>  <target_tax_id>  (477) 
9606

>  <bao_label>  (477) 
single protein format

>  <published_units>  (477) 
uM

>  <pchembl_value>  (477) 
4.3

>  <published_type>  (477) 
IC50

>  <activity_comment>  (477) 
None

$$$$

     RDKit          

 31 34  0  0  0  0  0  0  0  0999 V2000
    0.0000    0.0000    0.0000 C   0  0  0  0  0  0  0  0  0  0  0  0
    0.0000    0.0000    0.0000 O   0  0  0  0  0  0  0  0  0  0  0  0
    0.0000    0.0000    0.0000 C   0  0  0  0  0  0  0  0  0  0  0  0
    0.0000    0.0000    0.0000 C   0  0  0  0  0  0  0  0  0  0  0  0
    0.0000    0.0000    0.0000 C   0  0  0  0  0  0  0  0  0  0  0  0
    0.0000    0.0000    0.0000 N   0  0  0  0  0  0  0  0  0  0  0  0
    0.0000    0.0000    0.0000 C   0  0  0  0  0  0  0  0  0  0  0  0
    0.0000    0.0000    0.0000 N   0  0  0  0  0  0  0  0  0  0  0  0
    0.0000    0.0000    0.0000 C   0  0  0  0  0  0  0  0  0  0  0  0
    0.0000    0.0000    0.0000 N   0  0  0  0  0  0  0  0  0  0  0  0
    0.0000    0.0000    0.0000 C   0  0  0  0  0  0  0  0  0  0  0  0
    0.0000    0.0000    0.0000 C   0  0  0  0  0  0  0  0  0  0  0  0
    0.0000    0.0000    0.0000 C   0  0  0  0  0  0  0  0  0  0  0  0
    0.0000    0.0000    0.0000 C   0  0  0  0  0  0  0  0  0  0  0  0
    0.0000    0.0000    0.0000 F   0  0  0  0  0  0  0  0  0  0  0  0
    0.0000    0.0000    0.0000 C   0  0  0  0  0  0  0  0  0  0  0  0
    0.0000    0.0000    0.0000 Cl  0  0  0  0  0  0  0  0  0  0  0  0
    0.0000    0.0000    0.0000 C   0  0  0  0  0  0  0  0  0  0  0  0
    0.0000    0.0000    0.0000 C   0  0  0  0  0  0  0  0  0  0  0  0
    0.0000    0.0000    0.0000 C   0  0  0  0  0  0  0  0  0  0  0  0
    0.0000    0.0000    0.0000 C   0  0  0  0  0  0  0  0  0  0  0  0
    0.0000    0.0000    0.0000 O   0  0  0  0  0  0  0  0  0  0  0  0
    0.0000    0.0000    0.0000 C   0  0  0  0  0  0  0  0  0  0  0  0
    0.0000    0.0000    0.0000 C   0  0  0  0  0  0  0  0  0  0  0  0
    0.0000    0.0000    0.0000 C   0  0  0  0  0  0  0  0  0  0  0  0
    0.0000    0.0000    0.0000 N   0  0  0  0  0  0  0  0  0  0  0  0
    0.0000    0.0000    0.0000 C   0  0  0  0  0  0  0  0  0  0  0  0
    0.0000    0.0000    0.0000 C   0  0  0  0  0  0  0  0  0  0  0  0
    0.0000    0.0000    0.0000 O   0  0  0  0  0  0  0  0  0  0  0  0
    0.0000    0.0000    0.0000 C   0  0  0  0  0  0  0  0  0  0  0  0
    0.0000    0.0000    0.0000 C   0  0  0  0  0  0  0  0  0  0  0  0
  1  2  1  0
  2  3  1  0
  3  4  2  0
  4  5  1  0
  5  6  2  0
  6  7  1  0
  7  8  2  0
  8  9  1  0
  9 10  1  0
 10 11  1  0
 11 12  2  0
 12 13  1  0
 13 14  2  0
 14 15  1  0
 14 16  1  0
 16 17  1  0
 16 18  2  0
  9 19  2  0
 19 20  1  0
 20 21  2  0
 21 22  1  0
 22 23  1  0
 23 24  1  0
 24 25  1  0
 25 26  1  0
 26 27  1  0
 27 28  1  0
 28 29  1  0
 29 30  1  0
 30 31  1  0
 21  3  1  0
 19  5  1  0
 18 11  1  0
 31 26  1  0
M  END
>  <pIC50>  (478) 
5.92

>  <ChEMBL_ID>  (478) 
CHEMBL939

>  <document_journal>  (478) 
Nat. Chem. Biol.

>  <bao_endpoint>  (478) 
BAO_0000190

>  <potential_duplicate>  (478) 
False

>  <uo_units>  (478) 
UO_0000065

>  <canonical_smiles>  (478) 
COc1cc2ncnc(Nc3ccc(F)c(Cl)c3)c2cc1OCCCN4CCOCC4

>  <parent_molecule_chembl_id>  (478) 
CHEMBL939

>  <assay_type>  (478) 
B

>  <src_id>  (478) 
1

>  <ligand_efficiency>  (478) 
{u'le': u'0.26', u'bei': u'13.25', u'sei': u'8.61', u'lle': u'1.72'}

>  <standard_flag>  (478) 
True

>  <molecule_chembl_id>  (478) 
CHEMBL939

>  <target_organism>  (478) 
Homo sapiens

>  <standard_units>  (478) 
nM

>  <record_id>  (478) 
952532

>  <document_chembl_id>  (478) 
CHEMBL1240340

>  <bao_format>  (478) 
BAO_0000357

>  <data_validity_description>  (478) 
None

>  <activity_id>  (478) 
3444664

>  <standard_type>  (478) 
IC50

>  <target_chembl_id>  (478) 
CHEMBL1862

>  <data_validity_comment>  (478) 
None

>  <published_value>  (478) 
1.2

>  <document_year>  (478) 
2008

>  <target_pref_name>  (478) 
Tyrosine-protein kinase ABL

>  <assay_chembl_id>  (478) 
CHEMBL1243972

>  <standard_relation>  (478) 
=

>  <assay_description>  (478) 
Inhibition of recombinant c-Abl by radioactive phosphotransfer assay in presence of 10 uM ATP

>  <published_relation>  (478) 
=

>  <standard_value>  (478) 
1200

>  <qudt_units>  (478) 
http://www.openphacts.org/units/Nanomolar

>  <target_tax_id>  (478) 
9606

>  <bao_label>  (478) 
single protein format

>  <published_units>  (478) 
uM

>  <pchembl_value>  (478) 
5.92

>  <published_type>  (478) 
IC50

>  <activity_comment>  (478) 
None

$$$$

     RDKit          

 29 31  0  0  0  0  0  0  0  0999 V2000
    0.0000    0.0000    0.0000 C   0  0  0  0  0  0  0  0  0  0  0  0
    0.0000    0.0000    0.0000 C   0  0  0  0  0  0  0  0  0  0  0  0
    0.0000    0.0000    0.0000 N   0  0  0  0  0  0  0  0  0  0  0  0
    0.0000    0.0000    0.0000 C   0  0  0  0  0  0  0  0  0  0  0  0
    0.0000    0.0000    0.0000 C   0  0  0  0  0  0  0  0  0  0  0  0
    0.0000    0.0000    0.0000 C   0  0  0  0  0  0  0  0  0  0  0  0
    0.0000    0.0000    0.0000 C   0  0  0  0  0  0  0  0  0  0  0  0
    0.0000    0.0000    0.0000 N   0  0  0  0  0  0  0  0  0  0  0  0
    0.0000    0.0000    0.0000 C   0  0  0  0  0  0  0  0  0  0  0  0
    0.0000    0.0000    0.0000 O   0  0  0  0  0  0  0  0  0  0  0  0
    0.0000    0.0000    0.0000 C   0  0  0  0  0  0  0  0  0  0  0  0
    0.0000    0.0000    0.0000 C   0  0  0  0  0  0  0  0  0  0  0  0
    0.0000    0.0000    0.0000 C   0  0  0  0  0  0  0  0  0  0  0  0
    0.0000    0.0000    0.0000 N   0  0  0  0  0  0  0  0  0  0  0  0
    0.0000    0.0000    0.0000 C   0  0  0  0  0  0  0  0  0  0  0  0
    0.0000    0.0000    0.0000 C   0  0  0  0  0  0  0  0  0  0  0  0
    0.0000    0.0000    0.0000 C   0  0  0  0  0  0  0  0  0  0  0  0
    0.0000    0.0000    0.0000 C   0  0  0  0  0  0  0  0  0  0  0  0
    0.0000    0.0000    0.0000 O   0  0  0  0  0  0  0  0  0  0  0  0
    0.0000    0.0000    0.0000 N   0  0  0  0  0  0  0  0  0  0  0  0
    0.0000    0.0000    0.0000 C   0  0  0  0  0  0  0  0  0  0  0  0
    0.0000    0.0000    0.0000 C   0  0  0  0  0  0  0  0  0  0  0  0
    0.0000    0.0000    0.0000 C   0  0  0  0  0  0  0  0  0  0  0  0
    0.0000    0.0000    0.0000 C   0  0  0  0  0  0  0  0  0  0  0  0
    0.0000    0.0000    0.0000 F   0  0  0  0  0  0  0  0  0  0  0  0
    0.0000    0.0000    0.0000 C   0  0  0  0  0  0  0  0  0  0  0  0
    0.0000    0.0000    0.0000 C   0  0  0  0  0  0  0  0  0  0  0  0
    0.0000    0.0000    0.0000 C   0  0  0  0  0  0  0  0  0  0  0  0
    0.0000    0.0000    0.0000 C   0  0  0  0  0  0  0  0  0  0  0  0
  1  2  1  0
  2  3  1  0
  3  4  1  0
  4  5  1  0
  3  6  1  0
  6  7  1  0
  7  8  1  0
  8  9  1  0
  9 10  2  0
  9 11  1  0
 11 12  2  0
 12 13  1  0
 12 14  1  0
 14 15  1  0
 15 16  1  0
 16 17  2  0
 17 18  1  0
 18 19  2  0
 18 20  1  0
 20 21  1  0
 21 22  2  0
 22 23  1  0
 23 24  2  0
 24 25  1  0
 24 26  1  0
 26 27  2  0
 15 28  2  0
 28 29  1  0
 28 11  1  0
 17 27  1  0
 27 21  1  0
M  END
>  <pIC50>  (479) 
6.09

>  <ChEMBL_ID>  (479) 
CHEMBL535

>  <document_journal>  (479) 
Nat. Chem. Biol.

>  <bao_endpoint>  (479) 
BAO_0000190

>  <potential_duplicate>  (479) 
False

>  <uo_units>  (479) 
UO_0000065

>  <canonical_smiles>  (479) 
CCN(CC)CCNC(=O)c1c(C)[nH]c(\C=C\2/C(=O)Nc3ccc(F)cc23)c1C

>  <parent_molecule_chembl_id>  (479) 
CHEMBL535

>  <assay_type>  (479) 
B

>  <src_id>  (479) 
1

>  <ligand_efficiency>  (479) 
{u'le': u'0.3', u'bei': u'16.03', u'sei': u'8.27', u'lle': u'3.39'}

>  <standard_flag>  (479) 
True

>  <molecule_chembl_id>  (479) 
CHEMBL535

>  <target_organism>  (479) 
Homo sapiens

>  <standard_units>  (479) 
nM

>  <record_id>  (479) 
952670

>  <document_chembl_id>  (479) 
CHEMBL1240340

>  <bao_format>  (479) 
BAO_0000357

>  <data_validity_description>  (479) 
None

>  <activity_id>  (479) 
3444690

>  <standard_type>  (479) 
IC50

>  <target_chembl_id>  (479) 
CHEMBL1862

>  <data_validity_comment>  (479) 
None

>  <published_value>  (479) 
0.41

>  <document_year>  (479) 
2008

>  <target_pref_name>  (479) 
Tyrosine-protein kinase ABL

>  <assay_chembl_id>  (479) 
CHEMBL1243972

>  <standard_relation>  (479) 
=

>  <assay_description>  (479) 
Inhibition of recombinant c-Abl by radioactive phosphotransfer assay in presence of 10 uM ATP

>  <published_relation>  (479) 
=

>  <standard_value>  (479) 
410

>  <qudt_units>  (479) 
http://www.openphacts.org/units/Nanomolar

>  <target_tax_id>  (479) 
9606

>  <bao_label>  (479) 
single protein format

>  <published_units>  (479) 
uM

>  <pchembl_value>  (479) 
6.39

>  <published_type>  (479) 
IC50

>  <activity_comment>  (479) 
None

$$$$

     RDKit          

 24 27  0  0  0  0  0  0  0  0999 V2000
    0.0000    0.0000    0.0000 C   0  0  0  0  0  0  0  0  0  0  0  0
    0.0000    0.0000    0.0000 C   0  0  0  0  0  0  0  0  0  0  0  0
    0.0000    0.0000    0.0000 C   0  0  0  0  0  0  0  0  0  0  0  0
    0.0000    0.0000    0.0000 C   0  0  0  0  0  0  0  0  0  0  0  0
    0.0000    0.0000    0.0000 N   0  0  0  0  0  0  0  0  0  0  0  0
    0.0000    0.0000    0.0000 N   0  0  0  0  0  0  0  0  0  0  0  0
    0.0000    0.0000    0.0000 C   0  0  0  0  0  0  0  0  0  0  0  0
    0.0000    0.0000    0.0000 C   0  0  0  0  0  0  0  0  0  0  0  0
    0.0000    0.0000    0.0000 C   0  0  0  0  0  0  0  0  0  0  0  0
    0.0000    0.0000    0.0000 C   0  0  0  0  0  0  0  0  0  0  0  0
    0.0000    0.0000    0.0000 C   0  0  0  0  0  0  0  0  0  0  0  0
    0.0000    0.0000    0.0000 C   0  0  0  0  0  0  0  0  0  0  0  0
    0.0000    0.0000    0.0000 C   0  0  0  0  0  0  0  0  0  0  0  0
    0.0000    0.0000    0.0000 C   0  0  0  0  0  0  0  0  0  0  0  0
    0.0000    0.0000    0.0000 C   0  0  0  0  0  0  0  0  0  0  0  0
    0.0000    0.0000    0.0000 C   0  0  0  0  0  0  0  0  0  0  0  0
    0.0000    0.0000    0.0000 C   0  0  0  0  0  0  0  0  0  0  0  0
    0.0000    0.0000    0.0000 C   0  0  0  0  0  0  0  0  0  0  0  0
    0.0000    0.0000    0.0000 C   0  0  0  0  0  0  0  0  0  0  0  0
    0.0000    0.0000    0.0000 N   0  0  0  0  0  0  0  0  0  0  0  0
    0.0000    0.0000    0.0000 N   0  0  0  0  0  0  0  0  0  0  0  0
    0.0000    0.0000    0.0000 C   0  0  0  0  0  0  0  0  0  0  0  0
    0.0000    0.0000    0.0000 N   0  0  0  0  0  0  0  0  0  0  0  0
    0.0000    0.0000    0.0000 C   0  0  0  0  0  0  0  0  0  0  0  0
  1  2  1  0
  2  3  1  0
  2  4  1  0
  2  5  1  0
  5  6  1  0
  6  7  2  0
  7  8  1  0
  8  9  2  0
  9 10  1  0
 10 11  2  0
 11 12  1  0
 12 13  2  0
 13 14  1  0
 14 15  2  0
 15 16  1  0
 16 17  2  0
  7 18  1  0
 18 19  2  0
 19 20  1  0
 19 21  1  0
 21 22  2  0
 22 23  1  0
 23 24  2  0
 24  5  1  0
 17  8  1  0
 17 12  1  0
 24 18  1  0
M  END
>  <pIC50>  (480) 
6.22

>  <ChEMBL_ID>  (480) 
CHEMBL264406

>  <document_journal>  (480) 
Nat. Chem. Biol.

>  <bao_endpoint>  (480) 
BAO_0000190

>  <potential_duplicate>  (480) 
False

>  <uo_units>  (480) 
UO_0000065

>  <canonical_smiles>  (480) 
CC(C)(C)n1nc(c2cccc3ccccc23)c4c(N)ncnc14

>  <parent_molecule_chembl_id>  (480) 
CHEMBL264406

>  <assay_type>  (480) 
B

>  <src_id>  (480) 
1

>  <ligand_efficiency>  (480) 
{u'le': u'0.35', u'bei': u'19.6', u'sei': u'8.94', u'lle': u'2.54'}

>  <standard_flag>  (480) 
True

>  <molecule_chembl_id>  (480) 
CHEMBL264406

>  <target_organism>  (480) 
Homo sapiens

>  <standard_units>  (480) 
nM

>  <record_id>  (480) 
952224

>  <document_chembl_id>  (480) 
CHEMBL1240301

>  <bao_format>  (480) 
BAO_0000357

>  <data_validity_description>  (480) 
None

>  <activity_id>  (480) 
3447798

>  <standard_type>  (480) 
IC50

>  <target_chembl_id>  (480) 
CHEMBL1862

>  <data_validity_comment>  (480) 
None

>  <published_value>  (480) 
0.6

>  <document_year>  (480) 
2005

>  <target_pref_name>  (480) 
Tyrosine-protein kinase ABL

>  <assay_chembl_id>  (480) 
CHEMBL1250104

>  <standard_relation>  (480) 
=

>  <assay_description>  (480) 
Inhibition of wild type c-Abl

>  <published_relation>  (480) 
=

>  <standard_value>  (480) 
600

>  <qudt_units>  (480) 
http://www.openphacts.org/units/Nanomolar

>  <target_tax_id>  (480) 
9606

>  <bao_label>  (480) 
single protein format

>  <published_units>  (480) 
uM

>  <pchembl_value>  (480) 
6.22

>  <published_type>  (480) 
IC50

>  <activity_comment>  (480) 
None

$$$$

     RDKit          

 25 28  0  0  0  0  0  0  0  0999 V2000
    0.0000    0.0000    0.0000 C   0  0  0  0  0  0  0  0  0  0  0  0
    0.0000    0.0000    0.0000 C   0  0  0  0  0  0  0  0  0  0  0  0
    0.0000    0.0000    0.0000 C   0  0  0  0  0  0  0  0  0  0  0  0
    0.0000    0.0000    0.0000 C   0  0  0  0  0  0  0  0  0  0  0  0
    0.0000    0.0000    0.0000 N   0  0  0  0  0  0  0  0  0  0  0  0
    0.0000    0.0000    0.0000 N   0  0  0  0  0  0  0  0  0  0  0  0
    0.0000    0.0000    0.0000 C   0  0  0  0  0  0  0  0  0  0  0  0
    0.0000    0.0000    0.0000 C   0  0  0  0  0  0  0  0  0  0  0  0
    0.0000    0.0000    0.0000 C   0  0  0  0  0  0  0  0  0  0  0  0
    0.0000    0.0000    0.0000 C   0  0  0  0  0  0  0  0  0  0  0  0
    0.0000    0.0000    0.0000 C   0  0  0  0  0  0  0  0  0  0  0  0
    0.0000    0.0000    0.0000 C   0  0  0  0  0  0  0  0  0  0  0  0
    0.0000    0.0000    0.0000 C   0  0  0  0  0  0  0  0  0  0  0  0
    0.0000    0.0000    0.0000 C   0  0  0  0  0  0  0  0  0  0  0  0
    0.0000    0.0000    0.0000 C   0  0  0  0  0  0  0  0  0  0  0  0
    0.0000    0.0000    0.0000 C   0  0  0  0  0  0  0  0  0  0  0  0
    0.0000    0.0000    0.0000 C   0  0  0  0  0  0  0  0  0  0  0  0
    0.0000    0.0000    0.0000 C   0  0  0  0  0  0  0  0  0  0  0  0
    0.0000    0.0000    0.0000 C   0  0  0  0  0  0  0  0  0  0  0  0
    0.0000    0.0000    0.0000 C   0  0  0  0  0  0  0  0  0  0  0  0
    0.0000    0.0000    0.0000 N   0  0  0  0  0  0  0  0  0  0  0  0
    0.0000    0.0000    0.0000 N   0  0  0  0  0  0  0  0  0  0  0  0
    0.0000    0.0000    0.0000 C   0  0  0  0  0  0  0  0  0  0  0  0
    0.0000    0.0000    0.0000 N   0  0  0  0  0  0  0  0  0  0  0  0
    0.0000    0.0000    0.0000 C   0  0  0  0  0  0  0  0  0  0  0  0
  1  2  1  0
  2  3  1  0
  2  4  1  0
  2  5  1  0
  5  6  1  0
  6  7  2  0
  7  8  1  0
  8  9  1  0
  9 10  2  0
 10 11  1  0
 11 12  2  0
 12 13  1  0
 13 14  2  0
 14 15  1  0
 15 16  2  0
 16 17  1  0
 17 18  2  0
  7 19  1  0
 19 20  2  0
 20 21  1  0
 20 22  1  0
 22 23  2  0
 23 24  1  0
 24 25  2  0
 25  5  1  0
 18  9  1  0
 18 13  1  0
 25 19  1  0
M  END
>  <pIC50>  (481) 
5.47

>  <ChEMBL_ID>  (481) 
CHEMBL573578

>  <document_journal>  (481) 
Nat. Chem. Biol.

>  <bao_endpoint>  (481) 
BAO_0000190

>  <potential_duplicate>  (481) 
False

>  <uo_units>  (481) 
UO_0000065

>  <canonical_smiles>  (481) 
CC(C)(C)n1nc(Cc2cccc3ccccc23)c4c(N)ncnc14

>  <parent_molecule_chembl_id>  (481) 
CHEMBL573578

>  <assay_type>  (481) 
B

>  <src_id>  (481) 
1

>  <ligand_efficiency>  (481) 
{u'le': u'0.3', u'bei': u'16.5', u'sei': u'7.85', u'lle': u'1.76'}

>  <standard_flag>  (481) 
True

>  <molecule_chembl_id>  (481) 
CHEMBL573578

>  <target_organism>  (481) 
Homo sapiens

>  <standard_units>  (481) 
nM

>  <record_id>  (481) 
952359

>  <document_chembl_id>  (481) 
CHEMBL1240301

>  <bao_format>  (481) 
BAO_0000357

>  <data_validity_description>  (481) 
None

>  <activity_id>  (481) 
3447808

>  <standard_type>  (481) 
IC50

>  <target_chembl_id>  (481) 
CHEMBL1862

>  <data_validity_comment>  (481) 
None

>  <published_value>  (481) 
3.4

>  <document_year>  (481) 
2005

>  <target_pref_name>  (481) 
Tyrosine-protein kinase ABL

>  <assay_chembl_id>  (481) 
CHEMBL1250104

>  <standard_relation>  (481) 
=

>  <assay_description>  (481) 
Inhibition of wild type c-Abl

>  <published_relation>  (481) 
=

>  <standard_value>  (481) 
3400

>  <qudt_units>  (481) 
http://www.openphacts.org/units/Nanomolar

>  <target_tax_id>  (481) 
9606

>  <bao_label>  (481) 
single protein format

>  <published_units>  (481) 
uM

>  <pchembl_value>  (481) 
5.47

>  <published_type>  (481) 
IC50

>  <activity_comment>  (481) 
None

$$$$

     RDKit          

 40 47  0  0  0  0  0  0  0  0999 V2000
    0.0000    0.0000    0.0000 C   0  0  0  0  0  0  0  0  0  0  0  0
    0.0000    0.0000    0.0000 N   0  0  0  0  0  0  0  0  0  0  0  0
    0.0000    0.0000    0.0000 C   0  0  0  0  0  0  0  0  0  0  0  0
    0.0000    0.0000    0.0000 C   0  0  0  0  0  0  0  0  0  0  0  0
    0.0000    0.0000    0.0000 C   0  0  0  0  0  0  0  0  0  0  0  0
    0.0000    0.0000    0.0000 C   0  0  0  0  0  0  0  0  0  0  0  0
    0.0000    0.0000    0.0000 C   0  0  0  0  0  0  0  0  0  0  0  0
    0.0000    0.0000    0.0000 N   0  0  0  0  0  0  0  0  0  0  0  0
    0.0000    0.0000    0.0000 C   0  0  0  0  0  0  0  0  0  0  0  0
    0.0000    0.0000    0.0000 C   0  0  0  0  0  0  0  0  0  0  0  0
    0.0000    0.0000    0.0000 C   0  0  0  0  0  0  0  0  0  0  0  0
    0.0000    0.0000    0.0000 F   0  0  0  0  0  0  0  0  0  0  0  0
    0.0000    0.0000    0.0000 C   0  0  0  0  0  0  0  0  0  0  0  0
    0.0000    0.0000    0.0000 C   0  0  0  0  0  0  0  0  0  0  0  0
    0.0000    0.0000    0.0000 F   0  0  0  0  0  0  0  0  0  0  0  0
    0.0000    0.0000    0.0000 C   0  0  0  0  0  0  0  0  0  0  0  0
    0.0000    0.0000    0.0000 C   0  0  0  0  0  0  0  0  0  0  0  0
    0.0000    0.0000    0.0000 C   0  0  0  0  0  0  0  0  0  0  0  0
    0.0000    0.0000    0.0000 C   0  0  0  0  0  0  0  0  0  0  0  0
    0.0000    0.0000    0.0000 N   0  0  0  0  0  0  0  0  0  0  0  0
    0.0000    0.0000    0.0000 C   0  0  0  0  0  0  0  0  0  0  0  0
    0.0000    0.0000    0.0000 C   0  0  0  0  0  0  0  0  0  0  0  0
    0.0000    0.0000    0.0000 C   0  0  0  0  0  0  0  0  0  0  0  0
    0.0000    0.0000    0.0000 C   0  0  0  0  0  0  0  0  0  0  0  0
    0.0000    0.0000    0.0000 C   0  0  0  0  0  0  0  0  0  0  0  0
    0.0000    0.0000    0.0000 C   0  0  0  0  0  0  0  0  0  0  0  0
    0.0000    0.0000    0.0000 C   0  0  0  0  0  0  0  0  0  0  0  0
    0.0000    0.0000    0.0000 N   0  0  0  0  0  0  0  0  0  0  0  0
    0.0000    0.0000    0.0000 N   0  0  0  0  0  0  0  0  0  0  0  0
    0.0000    0.0000    0.0000 C   0  0  0  0  0  0  0  0  0  0  0  0
    0.0000    0.0000    0.0000 C   0  0  0  0  0  0  0  0  0  0  0  0
    0.0000    0.0000    0.0000 C   0  0  0  0  0  0  0  0  0  0  0  0
    0.0000    0.0000    0.0000 N   0  0  0  0  0  0  0  0  0  0  0  0
    0.0000    0.0000    0.0000 N   0  0  0  0  0  0  0  0  0  0  0  0
    0.0000    0.0000    0.0000 C   0  0  0  0  0  0  0  0  0  0  0  0
    0.0000    0.0000    0.0000 C   0  0  0  0  0  0  0  0  0  0  0  0
    0.0000    0.0000    0.0000 C   0  0  0  0  0  0  0  0  0  0  0  0
    0.0000    0.0000    0.0000 N   0  0  0  0  0  0  0  0  0  0  0  0
    0.0000    0.0000    0.0000 C   0  0  0  0  0  0  0  0  0  0  0  0
    0.0000    0.0000    0.0000 C   0  0  0  0  0  0  0  0  0  0  0  0
  1  2  1  0
  2  3  1  0
  3  4  1  0
  4  5  1  0
  5  6  1  0
  6  7  1  0
  7  8  1  0
  8  9  1  0
  9 10  2  0
 10 11  1  0
 11 12  1  0
 11 13  2  0
 13 14  1  0
 14 15  1  0
 14 16  2  0
 13 17  1  0
 17 18  2  0
 18 19  1  0
 19 20  2  0
 20 21  1  0
 21 22  2  0
 22 23  1  0
 23 24  1  0
 24 25  2  0
 25 26  1  0
 26 27  2  0
 27 28  1  0
 28 29  1  0
 29 30  2  0
 30 31  1  0
 22 32  1  0
 32 33  2  0
 33 34  1  0
 32 35  1  0
 35 36  2  0
 36 37  1  0
 37 38  2  0
 38 39  1  0
 39 40  2  0
  6  2  1  0
  8  4  1  0
 16  9  1  0
 34 17  1  0
 34 21  1  0
 31 23  2  0
 31 27  1  0
 40 35  1  0
M  END
>  <pIC50>  (482) 
6.54

>  <ChEMBL_ID>  (482) 
CHEMBL1276179

>  <document_journal>  (482) 
J. Med. Chem.

>  <bao_endpoint>  (482) 
BAO_0000190

>  <potential_duplicate>  (482) 
False

>  <uo_units>  (482) 
UO_0000065

>  <canonical_smiles>  (482) 
CN1C[C@@H]2C[C@H]1CN2c3cc(F)c(c(F)c3)c4ccnc5c(c6cccc7[nH]ncc67)c(nn45)c8ccncc8

>  <parent_molecule_chembl_id>  (482) 
CHEMBL1276179

>  <assay_type>  (482) 
B

>  <src_id>  (482) 
1

>  <ligand_efficiency>  (482) 
{u'le': u'0.22', u'bei': u'12.24', u'sei': u'8.36', u'lle': u'2.06'}

>  <standard_flag>  (482) 
True

>  <molecule_chembl_id>  (482) 
CHEMBL1276179

>  <target_organism>  (482) 
Homo sapiens

>  <standard_units>  (482) 
nM

>  <record_id>  (482) 
969310

>  <document_chembl_id>  (482) 
CHEMBL1275379

>  <bao_format>  (482) 
BAO_0000357

>  <data_validity_description>  (482) 
None

>  <activity_id>  (482) 
3556134

>  <standard_type>  (482) 
IC50

>  <target_chembl_id>  (482) 
CHEMBL1862

>  <data_validity_comment>  (482) 
None

>  <published_value>  (482) 
286

>  <document_year>  (482) 
2010

>  <target_pref_name>  (482) 
Tyrosine-protein kinase ABL

>  <assay_chembl_id>  (482) 
CHEMBL1285873

>  <standard_relation>  (482) 
=

>  <assay_description>  (482) 
Inhibition of ABL1

>  <published_relation>  (482) 
=

>  <standard_value>  (482) 
286

>  <qudt_units>  (482) 
http://www.openphacts.org/units/Nanomolar

>  <target_tax_id>  (482) 
9606

>  <bao_label>  (482) 
single protein format

>  <published_units>  (482) 
nM

>  <pchembl_value>  (482) 
6.54

>  <published_type>  (482) 
IC50

>  <activity_comment>  (482) 
None

$$$$

     RDKit          

 20 23  0  0  0  0  0  0  0  0999 V2000
    0.0000    0.0000    0.0000 C   0  0  0  0  0  0  0  0  0  0  0  0
    0.0000    0.0000    0.0000 O   0  0  0  0  0  0  0  0  0  0  0  0
    0.0000    0.0000    0.0000 C   0  0  0  0  0  0  0  0  0  0  0  0
    0.0000    0.0000    0.0000 C   0  0  0  0  0  0  0  0  0  0  0  0
    0.0000    0.0000    0.0000 C   0  0  0  0  0  0  0  0  0  0  0  0
    0.0000    0.0000    0.0000 C   0  0  0  0  0  0  0  0  0  0  0  0
    0.0000    0.0000    0.0000 C   0  0  0  0  0  0  0  0  0  0  0  0
    0.0000    0.0000    0.0000 C   0  0  0  0  0  0  0  0  0  0  0  0
    0.0000    0.0000    0.0000 N   0  0  0  0  0  0  0  0  0  0  0  0
    0.0000    0.0000    0.0000 C   0  0  0  0  0  0  0  0  0  0  0  0
    0.0000    0.0000    0.0000 C   0  0  0  0  0  0  0  0  0  0  0  0
    0.0000    0.0000    0.0000 C   0  0  0  0  0  0  0  0  0  0  0  0
    0.0000    0.0000    0.0000 N   0  0  0  0  0  0  0  0  0  0  0  0
    0.0000    0.0000    0.0000 N   0  0  0  0  0  0  0  0  0  0  0  0
    0.0000    0.0000    0.0000 C   0  0  0  0  0  0  0  0  0  0  0  0
    0.0000    0.0000    0.0000 C   0  0  0  0  0  0  0  0  0  0  0  0
    0.0000    0.0000    0.0000 C   0  0  0  0  0  0  0  0  0  0  0  0
    0.0000    0.0000    0.0000 C   0  0  0  0  0  0  0  0  0  0  0  0
    0.0000    0.0000    0.0000 N   0  0  0  0  0  0  0  0  0  0  0  0
    0.0000    0.0000    0.0000 C   0  0  0  0  0  0  0  0  0  0  0  0
  1  2  1  0
  2  3  1  0
  3  4  2  0
  4  5  1  0
  5  6  2  0
  6  7  1  0
  7  8  2  0
  8  9  1  0
  9 10  1  0
 10 11  2  0
  8 12  1  0
 12 13  2  0
 13 14  1  0
 14 15  1  0
 15 16  2  0
 16 17  1  0
 17 18  2  0
 18 19  1  0
 19 20  2  0
 11  3  1  0
 10  6  1  0
 20 12  1  0
 20 15  1  0
M  END
>  <pIC50>  (483) 
5.12

>  <ChEMBL_ID>  (483) 
CHEMBL1288582

>  <document_journal>  (483) 
Bioorg. Med. Chem. Lett.

>  <bao_endpoint>  (483) 
BAO_0000190

>  <potential_duplicate>  (483) 
False

>  <uo_units>  (483) 
UO_0000065

>  <canonical_smiles>  (483) 
COc1ccc2cc([nH]c2c1)c3n[nH]c4cccnc34

>  <parent_molecule_chembl_id>  (483) 
CHEMBL1288582

>  <assay_type>  (483) 
B

>  <src_id>  (483) 
1

>  <ligand_efficiency>  (483) 
{u'le': u'0.35', u'bei': u'19.35', u'sei': u'7.68', u'lle': u'1.84'}

>  <standard_flag>  (483) 
True

>  <molecule_chembl_id>  (483) 
CHEMBL1288582

>  <target_organism>  (483) 
Homo sapiens

>  <standard_units>  (483) 
nM

>  <record_id>  (483) 
973677

>  <document_chembl_id>  (483) 
CHEMBL1287686

>  <bao_format>  (483) 
BAO_0000357

>  <data_validity_description>  (483) 
None

>  <activity_id>  (483) 
3601418

>  <standard_type>  (483) 
IC50

>  <target_chembl_id>  (483) 
CHEMBL1862

>  <data_validity_comment>  (483) 
None

>  <published_value>  (483) 
7.68

>  <document_year>  (483) 
2010

>  <target_pref_name>  (483) 
Tyrosine-protein kinase ABL

>  <assay_chembl_id>  (483) 
CHEMBL1292326

>  <standard_relation>  (483) 
=

>  <assay_description>  (483) 
Inhibition of ABL1

>  <published_relation>  (483) 
=

>  <standard_value>  (483) 
7680

>  <qudt_units>  (483) 
http://www.openphacts.org/units/Nanomolar

>  <target_tax_id>  (483) 
9606

>  <bao_label>  (483) 
single protein format

>  <published_units>  (483) 
uM

>  <pchembl_value>  (483) 
5.12

>  <published_type>  (483) 
IC50

>  <activity_comment>  (483) 
None

$$$$

     RDKit          

 38 42  0  0  0  0  0  0  0  0999 V2000
    0.0000    0.0000    0.0000 O   0  0  0  0  0  0  0  0  0  0  0  0
    0.0000    0.0000    0.0000 N   0  0  0  0  0  0  0  0  0  0  0  0
    0.0000    0.0000    0.0000 C   0  0  0  0  0  0  0  0  0  0  0  0
    0.0000    0.0000    0.0000 O   0  0  0  0  0  0  0  0  0  0  0  0
    0.0000    0.0000    0.0000 C   0  0  0  0  0  0  0  0  0  0  0  0
    0.0000    0.0000    0.0000 C   0  0  0  0  0  0  0  0  0  0  0  0
    0.0000    0.0000    0.0000 C   0  0  0  0  0  0  0  0  0  0  0  0
    0.0000    0.0000    0.0000 O   0  0  0  0  0  0  0  0  0  0  0  0
    0.0000    0.0000    0.0000 C   0  0  0  0  0  0  0  0  0  0  0  0
    0.0000    0.0000    0.0000 C   0  0  0  0  0  0  0  0  0  0  0  0
    0.0000    0.0000    0.0000 C   0  0  0  0  0  0  0  0  0  0  0  0
    0.0000    0.0000    0.0000 C   0  0  0  0  0  0  0  0  0  0  0  0
    0.0000    0.0000    0.0000 C   0  0  0  0  0  0  0  0  0  0  0  0
    0.0000    0.0000    0.0000 C   0  0  0  0  0  0  0  0  0  0  0  0
    0.0000    0.0000    0.0000 C   0  0  0  0  0  0  0  0  0  0  0  0
    0.0000    0.0000    0.0000 N   0  0  0  0  0  0  0  0  0  0  0  0
    0.0000    0.0000    0.0000 C   0  0  0  0  0  0  0  0  0  0  0  0
    0.0000    0.0000    0.0000 N   0  0  0  0  0  0  0  0  0  0  0  0
    0.0000    0.0000    0.0000 C   0  0  0  0  0  0  0  0  0  0  0  0
    0.0000    0.0000    0.0000 N   0  0  0  0  0  0  0  0  0  0  0  0
    0.0000    0.0000    0.0000 C   0  0  0  0  0  0  0  0  0  0  0  0
    0.0000    0.0000    0.0000 C   0  0  0  0  0  0  0  0  0  0  0  0
    0.0000    0.0000    0.0000 C   0  0  0  0  0  0  0  0  0  0  0  0
    0.0000    0.0000    0.0000 C   0  0  0  0  0  0  0  0  0  0  0  0
    0.0000    0.0000    0.0000 O   0  0  0  0  0  0  0  0  0  0  0  0
    0.0000    0.0000    0.0000 C   0  0  0  0  0  0  0  0  0  0  0  0
    0.0000    0.0000    0.0000 C   0  0  0  0  0  0  0  0  0  0  0  0
    0.0000    0.0000    0.0000 C   0  0  0  0  0  0  0  0  0  0  0  0
    0.0000    0.0000    0.0000 C   0  0  0  0  0  0  0  0  0  0  0  0
    0.0000    0.0000    0.0000 C   0  0  0  0  0  0  0  0  0  0  0  0
    0.0000    0.0000    0.0000 C   0  0  0  0  0  0  0  0  0  0  0  0
    0.0000    0.0000    0.0000 F   0  0  0  0  0  0  0  0  0  0  0  0
    0.0000    0.0000    0.0000 C   0  0  0  0  0  0  0  0  0  0  0  0
    0.0000    0.0000    0.0000 C   0  0  0  0  0  0  0  0  0  0  0  0
    0.0000    0.0000    0.0000 Cl  0  0  0  0  0  0  0  0  0  0  0  0
    0.0000    0.0000    0.0000 C   0  0  0  0  0  0  0  0  0  0  0  0
    0.0000    0.0000    0.0000 C   0  0  0  0  0  0  0  0  0  0  0  0
    0.0000    0.0000    0.0000 C   0  0  0  0  0  0  0  0  0  0  0  0
  1  2  1  0
  2  3  1  0
  3  4  2  0
  3  5  1  0
  5  6  2  0
  6  7  1  0
  7  8  1  0
  8  9  1  0
  9 10  2  0
 10 11  1  0
  9 12  1  0
 12 13  2  0
 13 14  1  0
 14 15  2  0
 15 16  1  0
 16 17  2  0
 17 18  1  0
 18 19  2  0
 19 20  1  0
 20 21  1  0
 21 22  2  0
 22 23  1  0
 23 24  2  0
 24 25  1  0
 25 26  1  0
 26 27  1  0
 27 28  2  0
 28 29  1  0
 29 30  2  0
 30 31  1  0
 31 32  1  0
 31 33  2  0
 24 34  1  0
 34 35  1  0
 34 36  2  0
 19 37  1  0
 37 38  2  0
 11  7  2  0
 38 12  1  0
 37 15  1  0
 36 21  1  0
 33 27  1  0
M  END
>  <pIC50>  (484) 
5.11

>  <ChEMBL_ID>  (484) 
CHEMBL1630107

>  <document_journal>  (484) 
J. Med. Chem.

>  <bao_endpoint>  (484) 
BAO_0000190

>  <potential_duplicate>  (484) 
False

>  <uo_units>  (484) 
UO_0000065

>  <canonical_smiles>  (484) 
ONC(=O)\C=C\c1oc(cc1)c2ccc3ncnc(Nc4ccc(OCc5cccc(F)c5)c(Cl)c4)c3c2

>  <parent_molecule_chembl_id>  (484) 
CHEMBL1630107

>  <assay_type>  (484) 
B

>  <src_id>  (484) 
1

>  <ligand_efficiency>  (484) 
{u'le': u'0.18', u'bei': u'9.63', u'sei': u'4.67', u'lle': u'-1.49'}

>  <standard_flag>  (484) 
True

>  <molecule_chembl_id>  (484) 
CHEMBL1630107

>  <target_organism>  (484) 
Homo sapiens

>  <standard_units>  (484) 
nM

>  <record_id>  (484) 
1312814

>  <document_chembl_id>  (484) 
CHEMBL1629443

>  <bao_format>  (484) 
BAO_0000357

>  <data_validity_description>  (484) 
None

>  <activity_id>  (484) 
5112248

>  <standard_type>  (484) 
IC50

>  <target_chembl_id>  (484) 
CHEMBL1862

>  <data_validity_comment>  (484) 
None

>  <published_value>  (484) 
7.7

>  <document_year>  (484) 
2010

>  <target_pref_name>  (484) 
Tyrosine-protein kinase ABL

>  <assay_chembl_id>  (484) 
CHEMBL1640698

>  <standard_relation>  (484) 
=

>  <assay_description>  (484) 
Inhibition of ABL1 by flash plate based radioactive enzyme assay

>  <published_relation>  (484) 
=

>  <standard_value>  (484) 
7700

>  <qudt_units>  (484) 
http://www.openphacts.org/units/Nanomolar

>  <target_tax_id>  (484) 
9606

>  <bao_label>  (484) 
single protein format

>  <published_units>  (484) 
uM

>  <pchembl_value>  (484) 
5.11

>  <published_type>  (484) 
IC50

>  <activity_comment>  (484) 
None

$$$$

     RDKit          

 38 42  0  0  0  0  0  0  0  0999 V2000
    0.0000    0.0000    0.0000 O   0  0  0  0  0  0  0  0  0  0  0  0
    0.0000    0.0000    0.0000 N   0  0  0  0  0  0  0  0  0  0  0  0
    0.0000    0.0000    0.0000 C   0  0  0  0  0  0  0  0  0  0  0  0
    0.0000    0.0000    0.0000 O   0  0  0  0  0  0  0  0  0  0  0  0
    0.0000    0.0000    0.0000 C   0  0  0  0  0  0  0  0  0  0  0  0
    0.0000    0.0000    0.0000 C   0  0  0  0  0  0  0  0  0  0  0  0
    0.0000    0.0000    0.0000 C   0  0  0  0  0  0  0  0  0  0  0  0
    0.0000    0.0000    0.0000 C   0  0  0  0  0  0  0  0  0  0  0  0
    0.0000    0.0000    0.0000 C   0  0  0  0  0  0  0  0  0  0  0  0
    0.0000    0.0000    0.0000 C   0  0  0  0  0  0  0  0  0  0  0  0
    0.0000    0.0000    0.0000 S   0  0  0  0  0  0  0  0  0  0  0  0
    0.0000    0.0000    0.0000 C   0  0  0  0  0  0  0  0  0  0  0  0
    0.0000    0.0000    0.0000 C   0  0  0  0  0  0  0  0  0  0  0  0
    0.0000    0.0000    0.0000 C   0  0  0  0  0  0  0  0  0  0  0  0
    0.0000    0.0000    0.0000 C   0  0  0  0  0  0  0  0  0  0  0  0
    0.0000    0.0000    0.0000 N   0  0  0  0  0  0  0  0  0  0  0  0
    0.0000    0.0000    0.0000 C   0  0  0  0  0  0  0  0  0  0  0  0
    0.0000    0.0000    0.0000 N   0  0  0  0  0  0  0  0  0  0  0  0
    0.0000    0.0000    0.0000 C   0  0  0  0  0  0  0  0  0  0  0  0
    0.0000    0.0000    0.0000 N   0  0  0  0  0  0  0  0  0  0  0  0
    0.0000    0.0000    0.0000 C   0  0  0  0  0  0  0  0  0  0  0  0
    0.0000    0.0000    0.0000 C   0  0  0  0  0  0  0  0  0  0  0  0
    0.0000    0.0000    0.0000 C   0  0  0  0  0  0  0  0  0  0  0  0
    0.0000    0.0000    0.0000 C   0  0  0  0  0  0  0  0  0  0  0  0
    0.0000    0.0000    0.0000 O   0  0  0  0  0  0  0  0  0  0  0  0
    0.0000    0.0000    0.0000 C   0  0  0  0  0  0  0  0  0  0  0  0
    0.0000    0.0000    0.0000 C   0  0  0  0  0  0  0  0  0  0  0  0
    0.0000    0.0000    0.0000 C   0  0  0  0  0  0  0  0  0  0  0  0
    0.0000    0.0000    0.0000 C   0  0  0  0  0  0  0  0  0  0  0  0
    0.0000    0.0000    0.0000 C   0  0  0  0  0  0  0  0  0  0  0  0
    0.0000    0.0000    0.0000 C   0  0  0  0  0  0  0  0  0  0  0  0
    0.0000    0.0000    0.0000 F   0  0  0  0  0  0  0  0  0  0  0  0
    0.0000    0.0000    0.0000 C   0  0  0  0  0  0  0  0  0  0  0  0
    0.0000    0.0000    0.0000 C   0  0  0  0  0  0  0  0  0  0  0  0
    0.0000    0.0000    0.0000 Cl  0  0  0  0  0  0  0  0  0  0  0  0
    0.0000    0.0000    0.0000 C   0  0  0  0  0  0  0  0  0  0  0  0
    0.0000    0.0000    0.0000 C   0  0  0  0  0  0  0  0  0  0  0  0
    0.0000    0.0000    0.0000 C   0  0  0  0  0  0  0  0  0  0  0  0
  1  2  1  0
  2  3  1  0
  3  4  2  0
  3  5  1  0
  5  6  2  0
  6  7  1  0
  7  8  2  0
  8  9  1  0
  9 10  2  0
 10 11  1  0
 10 12  1  0
 12 13  2  0
 13 14  1  0
 14 15  2  0
 15 16  1  0
 16 17  2  0
 17 18  1  0
 18 19  2  0
 19 20  1  0
 20 21  1  0
 21 22  2  0
 22 23  1  0
 23 24  2  0
 24 25  1  0
 25 26  1  0
 26 27  1  0
 27 28  2  0
 28 29  1  0
 29 30  2  0
 30 31  1  0
 31 32  1  0
 31 33  2  0
 24 34  1  0
 34 35  1  0
 34 36  2  0
 19 37  1  0
 37 38  2  0
 11  7  1  0
 38 12  1  0
 37 15  1  0
 36 21  1  0
 33 27  1  0
M  END
>  <pIC50>  (485) 
5.57

>  <ChEMBL_ID>  (485) 
CHEMBL1630108

>  <document_journal>  (485) 
J. Med. Chem.

>  <bao_endpoint>  (485) 
BAO_0000190

>  <potential_duplicate>  (485) 
False

>  <uo_units>  (485) 
UO_0000065

>  <canonical_smiles>  (485) 
ONC(=O)\C=C\c1ccc(s1)c2ccc3ncnc(Nc4ccc(OCc5cccc(F)c5)c(Cl)c4)c3c2

>  <parent_molecule_chembl_id>  (485) 
CHEMBL1630108

>  <assay_type>  (485) 
B

>  <src_id>  (485) 
1

>  <ligand_efficiency>  (485) 
{u'le': u'0.2', u'bei': u'10.18', u'sei': u'4.47', u'lle': u'-1.59'}

>  <standard_flag>  (485) 
True

>  <molecule_chembl_id>  (485) 
CHEMBL1630108

>  <target_organism>  (485) 
Homo sapiens

>  <standard_units>  (485) 
nM

>  <record_id>  (485) 
1312815

>  <document_chembl_id>  (485) 
CHEMBL1629443

>  <bao_format>  (485) 
BAO_0000357

>  <data_validity_description>  (485) 
None

>  <activity_id>  (485) 
5112249

>  <standard_type>  (485) 
IC50

>  <target_chembl_id>  (485) 
CHEMBL1862

>  <data_validity_comment>  (485) 
None

>  <published_value>  (485) 
2.7

>  <document_year>  (485) 
2010

>  <target_pref_name>  (485) 
Tyrosine-protein kinase ABL

>  <assay_chembl_id>  (485) 
CHEMBL1640698

>  <standard_relation>  (485) 
=

>  <assay_description>  (485) 
Inhibition of ABL1 by flash plate based radioactive enzyme assay

>  <published_relation>  (485) 
=

>  <standard_value>  (485) 
2700

>  <qudt_units>  (485) 
http://www.openphacts.org/units/Nanomolar

>  <target_tax_id>  (485) 
9606

>  <bao_label>  (485) 
single protein format

>  <published_units>  (485) 
uM

>  <pchembl_value>  (485) 
5.57

>  <published_type>  (485) 
IC50

>  <activity_comment>  (485) 
None

$$$$

     RDKit          

 39 43  0  0  0  0  0  0  0  0999 V2000
    0.0000    0.0000    0.0000 O   0  0  0  0  0  0  0  0  0  0  0  0
    0.0000    0.0000    0.0000 N   0  0  0  0  0  0  0  0  0  0  0  0
    0.0000    0.0000    0.0000 C   0  0  0  0  0  0  0  0  0  0  0  0
    0.0000    0.0000    0.0000 O   0  0  0  0  0  0  0  0  0  0  0  0
    0.0000    0.0000    0.0000 C   0  0  0  0  0  0  0  0  0  0  0  0
    0.0000    0.0000    0.0000 C   0  0  0  0  0  0  0  0  0  0  0  0
    0.0000    0.0000    0.0000 C   0  0  0  0  0  0  0  0  0  0  0  0
    0.0000    0.0000    0.0000 C   0  0  0  0  0  0  0  0  0  0  0  0
    0.0000    0.0000    0.0000 C   0  0  0  0  0  0  0  0  0  0  0  0
    0.0000    0.0000    0.0000 C   0  0  0  0  0  0  0  0  0  0  0  0
    0.0000    0.0000    0.0000 C   0  0  0  0  0  0  0  0  0  0  0  0
    0.0000    0.0000    0.0000 C   0  0  0  0  0  0  0  0  0  0  0  0
    0.0000    0.0000    0.0000 C   0  0  0  0  0  0  0  0  0  0  0  0
    0.0000    0.0000    0.0000 C   0  0  0  0  0  0  0  0  0  0  0  0
    0.0000    0.0000    0.0000 C   0  0  0  0  0  0  0  0  0  0  0  0
    0.0000    0.0000    0.0000 C   0  0  0  0  0  0  0  0  0  0  0  0
    0.0000    0.0000    0.0000 N   0  0  0  0  0  0  0  0  0  0  0  0
    0.0000    0.0000    0.0000 C   0  0  0  0  0  0  0  0  0  0  0  0
    0.0000    0.0000    0.0000 N   0  0  0  0  0  0  0  0  0  0  0  0
    0.0000    0.0000    0.0000 C   0  0  0  0  0  0  0  0  0  0  0  0
    0.0000    0.0000    0.0000 N   0  0  0  0  0  0  0  0  0  0  0  0
    0.0000    0.0000    0.0000 C   0  0  0  0  0  0  0  0  0  0  0  0
    0.0000    0.0000    0.0000 C   0  0  0  0  0  0  0  0  0  0  0  0
    0.0000    0.0000    0.0000 C   0  0  0  0  0  0  0  0  0  0  0  0
    0.0000    0.0000    0.0000 C   0  0  0  0  0  0  0  0  0  0  0  0
    0.0000    0.0000    0.0000 O   0  0  0  0  0  0  0  0  0  0  0  0
    0.0000    0.0000    0.0000 C   0  0  0  0  0  0  0  0  0  0  0  0
    0.0000    0.0000    0.0000 C   0  0  0  0  0  0  0  0  0  0  0  0
    0.0000    0.0000    0.0000 C   0  0  0  0  0  0  0  0  0  0  0  0
    0.0000    0.0000    0.0000 C   0  0  0  0  0  0  0  0  0  0  0  0
    0.0000    0.0000    0.0000 C   0  0  0  0  0  0  0  0  0  0  0  0
    0.0000    0.0000    0.0000 C   0  0  0  0  0  0  0  0  0  0  0  0
    0.0000    0.0000    0.0000 F   0  0  0  0  0  0  0  0  0  0  0  0
    0.0000    0.0000    0.0000 C   0  0  0  0  0  0  0  0  0  0  0  0
    0.0000    0.0000    0.0000 C   0  0  0  0  0  0  0  0  0  0  0  0
    0.0000    0.0000    0.0000 Cl  0  0  0  0  0  0  0  0  0  0  0  0
    0.0000    0.0000    0.0000 C   0  0  0  0  0  0  0  0  0  0  0  0
    0.0000    0.0000    0.0000 C   0  0  0  0  0  0  0  0  0  0  0  0
    0.0000    0.0000    0.0000 C   0  0  0  0  0  0  0  0  0  0  0  0
  1  2  1  0
  2  3  1  0
  3  4  2  0
  3  5  1  0
  5  6  2  0
  6  7  1  0
  7  8  2  0
  8  9  1  0
  9 10  2  0
 10 11  1  0
 11 12  2  0
 11 13  1  0
 13 14  2  0
 14 15  1  0
 15 16  2  0
 16 17  1  0
 17 18  2  0
 18 19  1  0
 19 20  2  0
 20 21  1  0
 21 22  1  0
 22 23  2  0
 23 24  1  0
 24 25  2  0
 25 26  1  0
 26 27  1  0
 27 28  1  0
 28 29  2  0
 29 30  1  0
 30 31  2  0
 31 32  1  0
 32 33  1  0
 32 34  2  0
 25 35  1  0
 35 36  1  0
 35 37  2  0
 20 38  1  0
 38 39  2  0
 12  7  1  0
 39 13  1  0
 38 16  1  0
 37 22  1  0
 34 28  1  0
M  END
>  <pIC50>  (486) 
5.28

>  <ChEMBL_ID>  (486) 
CHEMBL1630109

>  <document_journal>  (486) 
J. Med. Chem.

>  <bao_endpoint>  (486) 
BAO_0000190

>  <potential_duplicate>  (486) 
False

>  <uo_units>  (486) 
UO_0000065

>  <canonical_smiles>  (486) 
ONC(=O)\C=C\c1cccc(c1)c2ccc3ncnc(Nc4ccc(OCc5cccc(F)c5)c(Cl)c4)c3c2

>  <parent_molecule_chembl_id>  (486) 
CHEMBL1630109

>  <assay_type>  (486) 
B

>  <src_id>  (486) 
1

>  <ligand_efficiency>  (486) 
{u'le': u'0.18', u'bei': u'9.75', u'sei': u'5.47', u'lle': u'-1.64'}

>  <standard_flag>  (486) 
True

>  <molecule_chembl_id>  (486) 
CHEMBL1630109

>  <target_organism>  (486) 
Homo sapiens

>  <standard_units>  (486) 
nM

>  <record_id>  (486) 
1312816

>  <document_chembl_id>  (486) 
CHEMBL1629443

>  <bao_format>  (486) 
BAO_0000357

>  <data_validity_description>  (486) 
None

>  <activity_id>  (486) 
5112250

>  <standard_type>  (486) 
IC50

>  <target_chembl_id>  (486) 
CHEMBL1862

>  <data_validity_comment>  (486) 
None

>  <published_value>  (486) 
5.3

>  <document_year>  (486) 
2010

>  <target_pref_name>  (486) 
Tyrosine-protein kinase ABL

>  <assay_chembl_id>  (486) 
CHEMBL1640698

>  <standard_relation>  (486) 
=

>  <assay_description>  (486) 
Inhibition of ABL1 by flash plate based radioactive enzyme assay

>  <published_relation>  (486) 
=

>  <standard_value>  (486) 
5300

>  <qudt_units>  (486) 
http://www.openphacts.org/units/Nanomolar

>  <target_tax_id>  (486) 
9606

>  <bao_label>  (486) 
single protein format

>  <published_units>  (486) 
uM

>  <pchembl_value>  (486) 
5.28

>  <published_type>  (486) 
IC50

>  <activity_comment>  (486) 
None

$$$$

     RDKit          

 39 43  0  0  0  0  0  0  0  0999 V2000
    0.0000    0.0000    0.0000 O   0  0  0  0  0  0  0  0  0  0  0  0
    0.0000    0.0000    0.0000 N   0  0  0  0  0  0  0  0  0  0  0  0
    0.0000    0.0000    0.0000 C   0  0  0  0  0  0  0  0  0  0  0  0
    0.0000    0.0000    0.0000 O   0  0  0  0  0  0  0  0  0  0  0  0
    0.0000    0.0000    0.0000 C   0  0  0  0  0  0  0  0  0  0  0  0
    0.0000    0.0000    0.0000 C   0  0  0  0  0  0  0  0  0  0  0  0
    0.0000    0.0000    0.0000 C   0  0  0  0  0  0  0  0  0  0  0  0
    0.0000    0.0000    0.0000 C   0  0  0  0  0  0  0  0  0  0  0  0
    0.0000    0.0000    0.0000 C   0  0  0  0  0  0  0  0  0  0  0  0
    0.0000    0.0000    0.0000 C   0  0  0  0  0  0  0  0  0  0  0  0
    0.0000    0.0000    0.0000 C   0  0  0  0  0  0  0  0  0  0  0  0
    0.0000    0.0000    0.0000 C   0  0  0  0  0  0  0  0  0  0  0  0
    0.0000    0.0000    0.0000 C   0  0  0  0  0  0  0  0  0  0  0  0
    0.0000    0.0000    0.0000 C   0  0  0  0  0  0  0  0  0  0  0  0
    0.0000    0.0000    0.0000 C   0  0  0  0  0  0  0  0  0  0  0  0
    0.0000    0.0000    0.0000 C   0  0  0  0  0  0  0  0  0  0  0  0
    0.0000    0.0000    0.0000 N   0  0  0  0  0  0  0  0  0  0  0  0
    0.0000    0.0000    0.0000 C   0  0  0  0  0  0  0  0  0  0  0  0
    0.0000    0.0000    0.0000 N   0  0  0  0  0  0  0  0  0  0  0  0
    0.0000    0.0000    0.0000 C   0  0  0  0  0  0  0  0  0  0  0  0
    0.0000    0.0000    0.0000 N   0  0  0  0  0  0  0  0  0  0  0  0
    0.0000    0.0000    0.0000 C   0  0  0  0  0  0  0  0  0  0  0  0
    0.0000    0.0000    0.0000 C   0  0  0  0  0  0  0  0  0  0  0  0
    0.0000    0.0000    0.0000 C   0  0  0  0  0  0  0  0  0  0  0  0
    0.0000    0.0000    0.0000 C   0  0  0  0  0  0  0  0  0  0  0  0
    0.0000    0.0000    0.0000 O   0  0  0  0  0  0  0  0  0  0  0  0
    0.0000    0.0000    0.0000 C   0  0  0  0  0  0  0  0  0  0  0  0
    0.0000    0.0000    0.0000 C   0  0  0  0  0  0  0  0  0  0  0  0
    0.0000    0.0000    0.0000 C   0  0  0  0  0  0  0  0  0  0  0  0
    0.0000    0.0000    0.0000 C   0  0  0  0  0  0  0  0  0  0  0  0
    0.0000    0.0000    0.0000 C   0  0  0  0  0  0  0  0  0  0  0  0
    0.0000    0.0000    0.0000 C   0  0  0  0  0  0  0  0  0  0  0  0
    0.0000    0.0000    0.0000 F   0  0  0  0  0  0  0  0  0  0  0  0
    0.0000    0.0000    0.0000 C   0  0  0  0  0  0  0  0  0  0  0  0
    0.0000    0.0000    0.0000 C   0  0  0  0  0  0  0  0  0  0  0  0
    0.0000    0.0000    0.0000 Cl  0  0  0  0  0  0  0  0  0  0  0  0
    0.0000    0.0000    0.0000 C   0  0  0  0  0  0  0  0  0  0  0  0
    0.0000    0.0000    0.0000 C   0  0  0  0  0  0  0  0  0  0  0  0
    0.0000    0.0000    0.0000 C   0  0  0  0  0  0  0  0  0  0  0  0
  1  2  1  0
  2  3  1  0
  3  4  2  0
  3  5  1  0
  5  6  2  0
  6  7  1  0
  7  8  2  0
  8  9  1  0
  9 10  2  0
 10 11  1  0
 11 12  2  0
 10 13  1  0
 13 14  2  0
 14 15  1  0
 15 16  2  0
 16 17  1  0
 17 18  2  0
 18 19  1  0
 19 20  2  0
 20 21  1  0
 21 22  1  0
 22 23  2  0
 23 24  1  0
 24 25  2  0
 25 26  1  0
 26 27  1  0
 27 28  1  0
 28 29  2  0
 29 30  1  0
 30 31  2  0
 31 32  1  0
 32 33  1  0
 32 34  2  0
 25 35  1  0
 35 36  1  0
 35 37  2  0
 20 38  1  0
 38 39  2  0
 12  7  1  0
 39 13  1  0
 38 16  1  0
 37 22  1  0
 34 28  1  0
M  END
>  <pIC50>  (487) 
5.31

>  <ChEMBL_ID>  (487) 
CHEMBL1630110

>  <document_journal>  (487) 
J. Med. Chem.

>  <bao_endpoint>  (487) 
BAO_0000190

>  <potential_duplicate>  (487) 
False

>  <uo_units>  (487) 
UO_0000065

>  <canonical_smiles>  (487) 
ONC(=O)\C=C\c1ccc(cc1)c2ccc3ncnc(Nc4ccc(OCc5cccc(F)c5)c(Cl)c4)c3c2

>  <parent_molecule_chembl_id>  (487) 
CHEMBL1630110

>  <assay_type>  (487) 
B

>  <src_id>  (487) 
1

>  <ligand_efficiency>  (487) 
{u'le': u'0.19', u'bei': u'9.82', u'sei': u'5.51', u'lle': u'-1.61'}

>  <standard_flag>  (487) 
True

>  <molecule_chembl_id>  (487) 
CHEMBL1630110

>  <target_organism>  (487) 
Homo sapiens

>  <standard_units>  (487) 
nM

>  <record_id>  (487) 
1312817

>  <document_chembl_id>  (487) 
CHEMBL1629443

>  <bao_format>  (487) 
BAO_0000357

>  <data_validity_description>  (487) 
None

>  <activity_id>  (487) 
5112251

>  <standard_type>  (487) 
IC50

>  <target_chembl_id>  (487) 
CHEMBL1862

>  <data_validity_comment>  (487) 
None

>  <published_value>  (487) 
4.9

>  <document_year>  (487) 
2010

>  <target_pref_name>  (487) 
Tyrosine-protein kinase ABL

>  <assay_chembl_id>  (487) 
CHEMBL1640698

>  <standard_relation>  (487) 
=

>  <assay_description>  (487) 
Inhibition of ABL1 by flash plate based radioactive enzyme assay

>  <published_relation>  (487) 
=

>  <standard_value>  (487) 
4900

>  <qudt_units>  (487) 
http://www.openphacts.org/units/Nanomolar

>  <target_tax_id>  (487) 
9606

>  <bao_label>  (487) 
single protein format

>  <published_units>  (487) 
uM

>  <pchembl_value>  (487) 
5.31

>  <published_type>  (487) 
IC50

>  <activity_comment>  (487) 
None

$$$$

     RDKit          

 42 47  0  0  0  0  0  0  0  0999 V2000
    0.0000    0.0000    0.0000 N   0  0  0  0  0  0  0  0  0  0  0  0
    0.0000    0.0000    0.0000 C   0  0  0  0  0  0  0  0  0  0  0  0
    0.0000    0.0000    0.0000 C   0  0  0  0  0  0  0  0  0  0  0  0
    0.0000    0.0000    0.0000 C   0  0  0  0  0  0  0  0  0  0  0  0
    0.0000    0.0000    0.0000 C   0  0  0  0  0  0  0  0  0  0  0  0
    0.0000    0.0000    0.0000 C   0  0  0  0  0  0  0  0  0  0  0  0
    0.0000    0.0000    0.0000 C   0  0  0  0  0  0  0  0  0  0  0  0
    0.0000    0.0000    0.0000 N   0  0  0  0  0  0  0  0  0  0  0  0
    0.0000    0.0000    0.0000 C   0  0  0  0  0  0  0  0  0  0  0  0
    0.0000    0.0000    0.0000 O   0  0  0  0  0  0  0  0  0  0  0  0
    0.0000    0.0000    0.0000 C   0  0  0  0  0  0  0  0  0  0  0  0
    0.0000    0.0000    0.0000 O   0  0  0  0  0  0  0  0  0  0  0  0
    0.0000    0.0000    0.0000 C   0  0  0  0  0  0  0  0  0  0  0  0
    0.0000    0.0000    0.0000 C   0  0  0  0  0  0  0  0  0  0  0  0
    0.0000    0.0000    0.0000 C   0  0  0  0  0  0  0  0  0  0  0  0
    0.0000    0.0000    0.0000 C   0  0  0  0  0  0  0  0  0  0  0  0
    0.0000    0.0000    0.0000 C   0  0  0  0  0  0  0  0  0  0  0  0
    0.0000    0.0000    0.0000 C   0  0  0  0  0  0  0  0  0  0  0  0
    0.0000    0.0000    0.0000 C   0  0  0  0  0  0  0  0  0  0  0  0
    0.0000    0.0000    0.0000 N   0  0  0  0  0  0  0  0  0  0  0  0
    0.0000    0.0000    0.0000 C   0  0  0  0  0  0  0  0  0  0  0  0
    0.0000    0.0000    0.0000 N   0  0  0  0  0  0  0  0  0  0  0  0
    0.0000    0.0000    0.0000 C   0  0  0  0  0  0  0  0  0  0  0  0
    0.0000    0.0000    0.0000 N   0  0  0  0  0  0  0  0  0  0  0  0
    0.0000    0.0000    0.0000 C   0  0  0  0  0  0  0  0  0  0  0  0
    0.0000    0.0000    0.0000 C   0  0  0  0  0  0  0  0  0  0  0  0
    0.0000    0.0000    0.0000 C   0  0  0  0  0  0  0  0  0  0  0  0
    0.0000    0.0000    0.0000 C   0  0  0  0  0  0  0  0  0  0  0  0
    0.0000    0.0000    0.0000 O   0  0  0  0  0  0  0  0  0  0  0  0
    0.0000    0.0000    0.0000 C   0  0  0  0  0  0  0  0  0  0  0  0
    0.0000    0.0000    0.0000 C   0  0  0  0  0  0  0  0  0  0  0  0
    0.0000    0.0000    0.0000 C   0  0  0  0  0  0  0  0  0  0  0  0
    0.0000    0.0000    0.0000 C   0  0  0  0  0  0  0  0  0  0  0  0
    0.0000    0.0000    0.0000 C   0  0  0  0  0  0  0  0  0  0  0  0
    0.0000    0.0000    0.0000 C   0  0  0  0  0  0  0  0  0  0  0  0
    0.0000    0.0000    0.0000 F   0  0  0  0  0  0  0  0  0  0  0  0
    0.0000    0.0000    0.0000 C   0  0  0  0  0  0  0  0  0  0  0  0
    0.0000    0.0000    0.0000 C   0  0  0  0  0  0  0  0  0  0  0  0
    0.0000    0.0000    0.0000 Cl  0  0  0  0  0  0  0  0  0  0  0  0
    0.0000    0.0000    0.0000 C   0  0  0  0  0  0  0  0  0  0  0  0
    0.0000    0.0000    0.0000 C   0  0  0  0  0  0  0  0  0  0  0  0
    0.0000    0.0000    0.0000 C   0  0  0  0  0  0  0  0  0  0  0  0
  1  2  1  0
  2  3  2  0
  3  4  1  0
  4  5  2  0
  5  6  1  0
  6  7  2  0
  7  8  1  0
  8  9  1  0
  9 10  2  0
  9 11  1  0
 11 12  1  0
 12 13  1  0
 13 14  2  0
 14 15  1  0
 13 16  1  0
 16 17  2  0
 17 18  1  0
 18 19  2  0
 19 20  1  0
 20 21  2  0
 21 22  1  0
 22 23  2  0
 23 24  1  0
 24 25  1  0
 25 26  2  0
 26 27  1  0
 27 28  2  0
 28 29  1  0
 29 30  1  0
 30 31  1  0
 31 32  2  0
 32 33  1  0
 33 34  2  0
 34 35  1  0
 35 36  1  0
 35 37  2  0
 28 38  1  0
 38 39  1  0
 38 40  2  0
 23 41  1  0
 41 42  2  0
  7  2  1  0
 15 11  2  0
 42 16  1  0
 41 19  1  0
 40 25  1  0
 37 31  1  0
M  END
>  <pIC50>  (488) 
5.35

>  <ChEMBL_ID>  (488) 
CHEMBL1630111

>  <document_journal>  (488) 
J. Med. Chem.

>  <bao_endpoint>  (488) 
BAO_0000190

>  <potential_duplicate>  (488) 
False

>  <uo_units>  (488) 
UO_0000065

>  <canonical_smiles>  (488) 
Nc1ccccc1NC(=O)c2oc(cc2)c3ccc4ncnc(Nc5ccc(OCc6cccc(F)c6)c(Cl)c5)c4c3

>  <parent_molecule_chembl_id>  (488) 
CHEMBL1630111

>  <assay_type>  (488) 
B

>  <src_id>  (488) 
1

>  <ligand_efficiency>  (488) 
{u'le': u'0.17', u'bei': u'9.22', u'sei': u'4.64', u'lle': u'-1.81'}

>  <standard_flag>  (488) 
True

>  <molecule_chembl_id>  (488) 
CHEMBL1630111

>  <target_organism>  (488) 
Homo sapiens

>  <standard_units>  (488) 
nM

>  <record_id>  (488) 
1312818

>  <document_chembl_id>  (488) 
CHEMBL1629443

>  <bao_format>  (488) 
BAO_0000357

>  <data_validity_description>  (488) 
None

>  <activity_id>  (488) 
5112252

>  <standard_type>  (488) 
IC50

>  <target_chembl_id>  (488) 
CHEMBL1862

>  <data_validity_comment>  (488) 
None

>  <published_value>  (488) 
4.5

>  <document_year>  (488) 
2010

>  <target_pref_name>  (488) 
Tyrosine-protein kinase ABL

>  <assay_chembl_id>  (488) 
CHEMBL1640698

>  <standard_relation>  (488) 
=

>  <assay_description>  (488) 
Inhibition of ABL1 by flash plate based radioactive enzyme assay

>  <published_relation>  (488) 
=

>  <standard_value>  (488) 
4500

>  <qudt_units>  (488) 
http://www.openphacts.org/units/Nanomolar

>  <target_tax_id>  (488) 
9606

>  <bao_label>  (488) 
single protein format

>  <published_units>  (488) 
uM

>  <pchembl_value>  (488) 
5.35

>  <published_type>  (488) 
IC50

>  <activity_comment>  (488) 
None

$$$$

     RDKit          

 42 47  0  0  0  0  0  0  0  0999 V2000
    0.0000    0.0000    0.0000 N   0  0  0  0  0  0  0  0  0  0  0  0
    0.0000    0.0000    0.0000 C   0  0  0  0  0  0  0  0  0  0  0  0
    0.0000    0.0000    0.0000 C   0  0  0  0  0  0  0  0  0  0  0  0
    0.0000    0.0000    0.0000 C   0  0  0  0  0  0  0  0  0  0  0  0
    0.0000    0.0000    0.0000 C   0  0  0  0  0  0  0  0  0  0  0  0
    0.0000    0.0000    0.0000 C   0  0  0  0  0  0  0  0  0  0  0  0
    0.0000    0.0000    0.0000 C   0  0  0  0  0  0  0  0  0  0  0  0
    0.0000    0.0000    0.0000 N   0  0  0  0  0  0  0  0  0  0  0  0
    0.0000    0.0000    0.0000 C   0  0  0  0  0  0  0  0  0  0  0  0
    0.0000    0.0000    0.0000 O   0  0  0  0  0  0  0  0  0  0  0  0
    0.0000    0.0000    0.0000 C   0  0  0  0  0  0  0  0  0  0  0  0
    0.0000    0.0000    0.0000 C   0  0  0  0  0  0  0  0  0  0  0  0
    0.0000    0.0000    0.0000 C   0  0  0  0  0  0  0  0  0  0  0  0
    0.0000    0.0000    0.0000 C   0  0  0  0  0  0  0  0  0  0  0  0
    0.0000    0.0000    0.0000 S   0  0  0  0  0  0  0  0  0  0  0  0
    0.0000    0.0000    0.0000 C   0  0  0  0  0  0  0  0  0  0  0  0
    0.0000    0.0000    0.0000 C   0  0  0  0  0  0  0  0  0  0  0  0
    0.0000    0.0000    0.0000 C   0  0  0  0  0  0  0  0  0  0  0  0
    0.0000    0.0000    0.0000 C   0  0  0  0  0  0  0  0  0  0  0  0
    0.0000    0.0000    0.0000 N   0  0  0  0  0  0  0  0  0  0  0  0
    0.0000    0.0000    0.0000 C   0  0  0  0  0  0  0  0  0  0  0  0
    0.0000    0.0000    0.0000 N   0  0  0  0  0  0  0  0  0  0  0  0
    0.0000    0.0000    0.0000 C   0  0  0  0  0  0  0  0  0  0  0  0
    0.0000    0.0000    0.0000 N   0  0  0  0  0  0  0  0  0  0  0  0
    0.0000    0.0000    0.0000 C   0  0  0  0  0  0  0  0  0  0  0  0
    0.0000    0.0000    0.0000 C   0  0  0  0  0  0  0  0  0  0  0  0
    0.0000    0.0000    0.0000 C   0  0  0  0  0  0  0  0  0  0  0  0
    0.0000    0.0000    0.0000 C   0  0  0  0  0  0  0  0  0  0  0  0
    0.0000    0.0000    0.0000 O   0  0  0  0  0  0  0  0  0  0  0  0
    0.0000    0.0000    0.0000 C   0  0  0  0  0  0  0  0  0  0  0  0
    0.0000    0.0000    0.0000 C   0  0  0  0  0  0  0  0  0  0  0  0
    0.0000    0.0000    0.0000 C   0  0  0  0  0  0  0  0  0  0  0  0
    0.0000    0.0000    0.0000 C   0  0  0  0  0  0  0  0  0  0  0  0
    0.0000    0.0000    0.0000 C   0  0  0  0  0  0  0  0  0  0  0  0
    0.0000    0.0000    0.0000 C   0  0  0  0  0  0  0  0  0  0  0  0
    0.0000    0.0000    0.0000 F   0  0  0  0  0  0  0  0  0  0  0  0
    0.0000    0.0000    0.0000 C   0  0  0  0  0  0  0  0  0  0  0  0
    0.0000    0.0000    0.0000 C   0  0  0  0  0  0  0  0  0  0  0  0
    0.0000    0.0000    0.0000 Cl  0  0  0  0  0  0  0  0  0  0  0  0
    0.0000    0.0000    0.0000 C   0  0  0  0  0  0  0  0  0  0  0  0
    0.0000    0.0000    0.0000 C   0  0  0  0  0  0  0  0  0  0  0  0
    0.0000    0.0000    0.0000 C   0  0  0  0  0  0  0  0  0  0  0  0
  1  2  1  0
  2  3  2  0
  3  4  1  0
  4  5  2  0
  5  6  1  0
  6  7  2  0
  7  8  1  0
  8  9  1  0
  9 10  2  0
  9 11  1  0
 11 12  2  0
 12 13  1  0
 13 14  2  0
 14 15  1  0
 14 16  1  0
 16 17  2  0
 17 18  1  0
 18 19  2  0
 19 20  1  0
 20 21  2  0
 21 22  1  0
 22 23  2  0
 23 24  1  0
 24 25  1  0
 25 26  2  0
 26 27  1  0
 27 28  2  0
 28 29  1  0
 29 30  1  0
 30 31  1  0
 31 32  2  0
 32 33  1  0
 33 34  2  0
 34 35  1  0
 35 36  1  0
 35 37  2  0
 28 38  1  0
 38 39  1  0
 38 40  2  0
 23 41  1  0
 41 42  2  0
  7  2  1  0
 15 11  1  0
 42 16  1  0
 41 19  1  0
 40 25  1  0
 37 31  1  0
M  END
>  <pIC50>  (489) 
5.22

>  <ChEMBL_ID>  (489) 
CHEMBL1630112

>  <document_journal>  (489) 
J. Med. Chem.

>  <bao_endpoint>  (489) 
BAO_0000190

>  <potential_duplicate>  (489) 
False

>  <uo_units>  (489) 
UO_0000065

>  <canonical_smiles>  (489) 
Nc1ccccc1NC(=O)c2ccc(s2)c3ccc4ncnc(Nc5ccc(OCc6cccc(F)c6)c(Cl)c5)c4c3

>  <parent_molecule_chembl_id>  (489) 
CHEMBL1630112

>  <assay_type>  (489) 
B

>  <src_id>  (489) 
1

>  <ligand_efficiency>  (489) 
{u'le': u'0.17', u'bei': u'8.76', u'sei': u'4', u'lle': u'-2.5'}

>  <standard_flag>  (489) 
True

>  <molecule_chembl_id>  (489) 
CHEMBL1630112

>  <target_organism>  (489) 
Homo sapiens

>  <standard_units>  (489) 
nM

>  <record_id>  (489) 
1312819

>  <document_chembl_id>  (489) 
CHEMBL1629443

>  <bao_format>  (489) 
BAO_0000357

>  <data_validity_description>  (489) 
None

>  <activity_id>  (489) 
5112253

>  <standard_type>  (489) 
IC50

>  <target_chembl_id>  (489) 
CHEMBL1862

>  <data_validity_comment>  (489) 
None

>  <published_value>  (489) 
6

>  <document_year>  (489) 
2010

>  <target_pref_name>  (489) 
Tyrosine-protein kinase ABL

>  <assay_chembl_id>  (489) 
CHEMBL1640698

>  <standard_relation>  (489) 
=

>  <assay_description>  (489) 
Inhibition of ABL1 by flash plate based radioactive enzyme assay

>  <published_relation>  (489) 
=

>  <standard_value>  (489) 
6000

>  <qudt_units>  (489) 
http://www.openphacts.org/units/Nanomolar

>  <target_tax_id>  (489) 
9606

>  <bao_label>  (489) 
single protein format

>  <published_units>  (489) 
uM

>  <pchembl_value>  (489) 
5.22

>  <published_type>  (489) 
IC50

>  <activity_comment>  (489) 
None

$$$$

     RDKit          

 44 49  0  0  0  0  0  0  0  0999 V2000
    0.0000    0.0000    0.0000 N   0  0  0  0  0  0  0  0  0  0  0  0
    0.0000    0.0000    0.0000 C   0  0  0  0  0  0  0  0  0  0  0  0
    0.0000    0.0000    0.0000 C   0  0  0  0  0  0  0  0  0  0  0  0
    0.0000    0.0000    0.0000 C   0  0  0  0  0  0  0  0  0  0  0  0
    0.0000    0.0000    0.0000 C   0  0  0  0  0  0  0  0  0  0  0  0
    0.0000    0.0000    0.0000 C   0  0  0  0  0  0  0  0  0  0  0  0
    0.0000    0.0000    0.0000 C   0  0  0  0  0  0  0  0  0  0  0  0
    0.0000    0.0000    0.0000 N   0  0  0  0  0  0  0  0  0  0  0  0
    0.0000    0.0000    0.0000 C   0  0  0  0  0  0  0  0  0  0  0  0
    0.0000    0.0000    0.0000 O   0  0  0  0  0  0  0  0  0  0  0  0
    0.0000    0.0000    0.0000 C   0  0  0  0  0  0  0  0  0  0  0  0
    0.0000    0.0000    0.0000 C   0  0  0  0  0  0  0  0  0  0  0  0
    0.0000    0.0000    0.0000 C   0  0  0  0  0  0  0  0  0  0  0  0
    0.0000    0.0000    0.0000 O   0  0  0  0  0  0  0  0  0  0  0  0
    0.0000    0.0000    0.0000 C   0  0  0  0  0  0  0  0  0  0  0  0
    0.0000    0.0000    0.0000 C   0  0  0  0  0  0  0  0  0  0  0  0
    0.0000    0.0000    0.0000 C   0  0  0  0  0  0  0  0  0  0  0  0
    0.0000    0.0000    0.0000 C   0  0  0  0  0  0  0  0  0  0  0  0
    0.0000    0.0000    0.0000 C   0  0  0  0  0  0  0  0  0  0  0  0
    0.0000    0.0000    0.0000 C   0  0  0  0  0  0  0  0  0  0  0  0
    0.0000    0.0000    0.0000 C   0  0  0  0  0  0  0  0  0  0  0  0
    0.0000    0.0000    0.0000 N   0  0  0  0  0  0  0  0  0  0  0  0
    0.0000    0.0000    0.0000 C   0  0  0  0  0  0  0  0  0  0  0  0
    0.0000    0.0000    0.0000 N   0  0  0  0  0  0  0  0  0  0  0  0
    0.0000    0.0000    0.0000 C   0  0  0  0  0  0  0  0  0  0  0  0
    0.0000    0.0000    0.0000 N   0  0  0  0  0  0  0  0  0  0  0  0
    0.0000    0.0000    0.0000 C   0  0  0  0  0  0  0  0  0  0  0  0
    0.0000    0.0000    0.0000 C   0  0  0  0  0  0  0  0  0  0  0  0
    0.0000    0.0000    0.0000 C   0  0  0  0  0  0  0  0  0  0  0  0
    0.0000    0.0000    0.0000 C   0  0  0  0  0  0  0  0  0  0  0  0
    0.0000    0.0000    0.0000 O   0  0  0  0  0  0  0  0  0  0  0  0
    0.0000    0.0000    0.0000 C   0  0  0  0  0  0  0  0  0  0  0  0
    0.0000    0.0000    0.0000 C   0  0  0  0  0  0  0  0  0  0  0  0
    0.0000    0.0000    0.0000 C   0  0  0  0  0  0  0  0  0  0  0  0
    0.0000    0.0000    0.0000 C   0  0  0  0  0  0  0  0  0  0  0  0
    0.0000    0.0000    0.0000 C   0  0  0  0  0  0  0  0  0  0  0  0
    0.0000    0.0000    0.0000 C   0  0  0  0  0  0  0  0  0  0  0  0
    0.0000    0.0000    0.0000 F   0  0  0  0  0  0  0  0  0  0  0  0
    0.0000    0.0000    0.0000 C   0  0  0  0  0  0  0  0  0  0  0  0
    0.0000    0.0000    0.0000 C   0  0  0  0  0  0  0  0  0  0  0  0
    0.0000    0.0000    0.0000 Cl  0  0  0  0  0  0  0  0  0  0  0  0
    0.0000    0.0000    0.0000 C   0  0  0  0  0  0  0  0  0  0  0  0
    0.0000    0.0000    0.0000 C   0  0  0  0  0  0  0  0  0  0  0  0
    0.0000    0.0000    0.0000 C   0  0  0  0  0  0  0  0  0  0  0  0
  1  2  1  0
  2  3  2  0
  3  4  1  0
  4  5  2  0
  5  6  1  0
  6  7  2  0
  7  8  1  0
  8  9  1  0
  9 10  2  0
  9 11  1  0
 11 12  2  0
 12 13  1  0
 13 14  1  0
 14 15  1  0
 15 16  2  0
 16 17  1  0
 15 18  1  0
 18 19  2  0
 19 20  1  0
 20 21  2  0
 21 22  1  0
 22 23  2  0
 23 24  1  0
 24 25  2  0
 25 26  1  0
 26 27  1  0
 27 28  2  0
 28 29  1  0
 29 30  2  0
 30 31  1  0
 31 32  1  0
 32 33  1  0
 33 34  2  0
 34 35  1  0
 35 36  2  0
 36 37  1  0
 37 38  1  0
 37 39  2  0
 30 40  1  0
 40 41  1  0
 40 42  2  0
 25 43  1  0
 43 44  2  0
  7  2  1  0
 17 13  2  0
 44 18  1  0
 43 21  1  0
 42 27  1  0
 39 33  1  0
M  END
>  <pIC50>  (490) 
5.31

>  <ChEMBL_ID>  (490) 
CHEMBL1630113

>  <document_journal>  (490) 
J. Med. Chem.

>  <bao_endpoint>  (490) 
BAO_0000190

>  <potential_duplicate>  (490) 
False

>  <uo_units>  (490) 
UO_0000065

>  <canonical_smiles>  (490) 
Nc1ccccc1NC(=O)\C=C\c2oc(cc2)c3ccc4ncnc(Nc5ccc(OCc6cccc(F)c6)c(Cl)c5)c4c3

>  <parent_molecule_chembl_id>  (490) 
CHEMBL1630113

>  <assay_type>  (490) 
B

>  <src_id>  (490) 
1

>  <ligand_efficiency>  (490) 
{u'le': u'0.16', u'bei': u'8.76', u'sei': u'4.61', u'lle': u'-2.32'}

>  <standard_flag>  (490) 
True

>  <molecule_chembl_id>  (490) 
CHEMBL1630113

>  <target_organism>  (490) 
Homo sapiens

>  <standard_units>  (490) 
nM

>  <record_id>  (490) 
1312820

>  <document_chembl_id>  (490) 
CHEMBL1629443

>  <bao_format>  (490) 
BAO_0000357

>  <data_validity_description>  (490) 
None

>  <activity_id>  (490) 
5112254

>  <standard_type>  (490) 
IC50

>  <target_chembl_id>  (490) 
CHEMBL1862

>  <data_validity_comment>  (490) 
None

>  <published_value>  (490) 
4.9

>  <document_year>  (490) 
2010

>  <target_pref_name>  (490) 
Tyrosine-protein kinase ABL

>  <assay_chembl_id>  (490) 
CHEMBL1640698

>  <standard_relation>  (490) 
=

>  <assay_description>  (490) 
Inhibition of ABL1 by flash plate based radioactive enzyme assay

>  <published_relation>  (490) 
=

>  <standard_value>  (490) 
4900

>  <qudt_units>  (490) 
http://www.openphacts.org/units/Nanomolar

>  <target_tax_id>  (490) 
9606

>  <bao_label>  (490) 
single protein format

>  <published_units>  (490) 
uM

>  <pchembl_value>  (490) 
5.31

>  <published_type>  (490) 
IC50

>  <activity_comment>  (490) 
None

$$$$

     RDKit          

 45 50  0  0  0  0  0  0  0  0999 V2000
    0.0000    0.0000    0.0000 N   0  0  0  0  0  0  0  0  0  0  0  0
    0.0000    0.0000    0.0000 C   0  0  0  0  0  0  0  0  0  0  0  0
    0.0000    0.0000    0.0000 C   0  0  0  0  0  0  0  0  0  0  0  0
    0.0000    0.0000    0.0000 C   0  0  0  0  0  0  0  0  0  0  0  0
    0.0000    0.0000    0.0000 C   0  0  0  0  0  0  0  0  0  0  0  0
    0.0000    0.0000    0.0000 C   0  0  0  0  0  0  0  0  0  0  0  0
    0.0000    0.0000    0.0000 C   0  0  0  0  0  0  0  0  0  0  0  0
    0.0000    0.0000    0.0000 N   0  0  0  0  0  0  0  0  0  0  0  0
    0.0000    0.0000    0.0000 C   0  0  0  0  0  0  0  0  0  0  0  0
    0.0000    0.0000    0.0000 O   0  0  0  0  0  0  0  0  0  0  0  0
    0.0000    0.0000    0.0000 C   0  0  0  0  0  0  0  0  0  0  0  0
    0.0000    0.0000    0.0000 C   0  0  0  0  0  0  0  0  0  0  0  0
    0.0000    0.0000    0.0000 C   0  0  0  0  0  0  0  0  0  0  0  0
    0.0000    0.0000    0.0000 C   0  0  0  0  0  0  0  0  0  0  0  0
    0.0000    0.0000    0.0000 C   0  0  0  0  0  0  0  0  0  0  0  0
    0.0000    0.0000    0.0000 C   0  0  0  0  0  0  0  0  0  0  0  0
    0.0000    0.0000    0.0000 C   0  0  0  0  0  0  0  0  0  0  0  0
    0.0000    0.0000    0.0000 C   0  0  0  0  0  0  0  0  0  0  0  0
    0.0000    0.0000    0.0000 C   0  0  0  0  0  0  0  0  0  0  0  0
    0.0000    0.0000    0.0000 C   0  0  0  0  0  0  0  0  0  0  0  0
    0.0000    0.0000    0.0000 C   0  0  0  0  0  0  0  0  0  0  0  0
    0.0000    0.0000    0.0000 C   0  0  0  0  0  0  0  0  0  0  0  0
    0.0000    0.0000    0.0000 N   0  0  0  0  0  0  0  0  0  0  0  0
    0.0000    0.0000    0.0000 C   0  0  0  0  0  0  0  0  0  0  0  0
    0.0000    0.0000    0.0000 N   0  0  0  0  0  0  0  0  0  0  0  0
    0.0000    0.0000    0.0000 C   0  0  0  0  0  0  0  0  0  0  0  0
    0.0000    0.0000    0.0000 N   0  0  0  0  0  0  0  0  0  0  0  0
    0.0000    0.0000    0.0000 C   0  0  0  0  0  0  0  0  0  0  0  0
    0.0000    0.0000    0.0000 C   0  0  0  0  0  0  0  0  0  0  0  0
    0.0000    0.0000    0.0000 C   0  0  0  0  0  0  0  0  0  0  0  0
    0.0000    0.0000    0.0000 C   0  0  0  0  0  0  0  0  0  0  0  0
    0.0000    0.0000    0.0000 O   0  0  0  0  0  0  0  0  0  0  0  0
    0.0000    0.0000    0.0000 C   0  0  0  0  0  0  0  0  0  0  0  0
    0.0000    0.0000    0.0000 C   0  0  0  0  0  0  0  0  0  0  0  0
    0.0000    0.0000    0.0000 C   0  0  0  0  0  0  0  0  0  0  0  0
    0.0000    0.0000    0.0000 C   0  0  0  0  0  0  0  0  0  0  0  0
    0.0000    0.0000    0.0000 C   0  0  0  0  0  0  0  0  0  0  0  0
    0.0000    0.0000    0.0000 C   0  0  0  0  0  0  0  0  0  0  0  0
    0.0000    0.0000    0.0000 F   0  0  0  0  0  0  0  0  0  0  0  0
    0.0000    0.0000    0.0000 C   0  0  0  0  0  0  0  0  0  0  0  0
    0.0000    0.0000    0.0000 C   0  0  0  0  0  0  0  0  0  0  0  0
    0.0000    0.0000    0.0000 Cl  0  0  0  0  0  0  0  0  0  0  0  0
    0.0000    0.0000    0.0000 C   0  0  0  0  0  0  0  0  0  0  0  0
    0.0000    0.0000    0.0000 C   0  0  0  0  0  0  0  0  0  0  0  0
    0.0000    0.0000    0.0000 C   0  0  0  0  0  0  0  0  0  0  0  0
  1  2  1  0
  2  3  2  0
  3  4  1  0
  4  5  2  0
  5  6  1  0
  6  7  2  0
  7  8  1  0
  8  9  1  0
  9 10  2  0
  9 11  1  0
 11 12  2  0
 12 13  1  0
 13 14  2  0
 14 15  1  0
 15 16  2  0
 16 17  1  0
 17 18  2  0
 17 19  1  0
 19 20  2  0
 20 21  1  0
 21 22  2  0
 22 23  1  0
 23 24  2  0
 24 25  1  0
 25 26  2  0
 26 27  1  0
 27 28  1  0
 28 29  2  0
 29 30  1  0
 30 31  2  0
 31 32  1  0
 32 33  1  0
 33 34  1  0
 34 35  2  0
 35 36  1  0
 36 37  2  0
 37 38  1  0
 38 39  1  0
 38 40  2  0
 31 41  1  0
 41 42  1  0
 41 43  2  0
 26 44  1  0
 44 45  2  0
  7  2  1  0
 18 13  1  0
 45 19  1  0
 44 22  1  0
 43 28  1  0
 40 34  1  0
M  END
>  <pIC50>  (491) 
5.54

>  <ChEMBL_ID>  (491) 
CHEMBL1630114

>  <document_journal>  (491) 
J. Med. Chem.

>  <bao_endpoint>  (491) 
BAO_0000190

>  <potential_duplicate>  (491) 
False

>  <uo_units>  (491) 
UO_0000065

>  <canonical_smiles>  (491) 
Nc1ccccc1NC(=O)\C=C\c2cccc(c2)c3ccc4ncnc(Nc5ccc(OCc6cccc(F)c6)c(Cl)c5)c4c3

>  <parent_molecule_chembl_id>  (491) 
CHEMBL1630114

>  <assay_type>  (491) 
B

>  <src_id>  (491) 
1

>  <ligand_efficiency>  (491) 
{u'le': u'0.17', u'bei': u'8.99', u'sei': u'5.42', u'lle': u'-2.4'}

>  <standard_flag>  (491) 
True

>  <molecule_chembl_id>  (491) 
CHEMBL1630114

>  <target_organism>  (491) 
Homo sapiens

>  <standard_units>  (491) 
nM

>  <record_id>  (491) 
1312821

>  <document_chembl_id>  (491) 
CHEMBL1629443

>  <bao_format>  (491) 
BAO_0000357

>  <data_validity_description>  (491) 
None

>  <activity_id>  (491) 
5112255

>  <standard_type>  (491) 
IC50

>  <target_chembl_id>  (491) 
CHEMBL1862

>  <data_validity_comment>  (491) 
None

>  <published_value>  (491) 
2.9

>  <document_year>  (491) 
2010

>  <target_pref_name>  (491) 
Tyrosine-protein kinase ABL

>  <assay_chembl_id>  (491) 
CHEMBL1640698

>  <standard_relation>  (491) 
=

>  <assay_description>  (491) 
Inhibition of ABL1 by flash plate based radioactive enzyme assay

>  <published_relation>  (491) 
=

>  <standard_value>  (491) 
2900

>  <qudt_units>  (491) 
http://www.openphacts.org/units/Nanomolar

>  <target_tax_id>  (491) 
9606

>  <bao_label>  (491) 
single protein format

>  <published_units>  (491) 
uM

>  <pchembl_value>  (491) 
5.54

>  <published_type>  (491) 
IC50

>  <activity_comment>  (491) 
None

$$$$

     RDKit          

 45 50  0  0  0  0  0  0  0  0999 V2000
    0.0000    0.0000    0.0000 N   0  0  0  0  0  0  0  0  0  0  0  0
    0.0000    0.0000    0.0000 C   0  0  0  0  0  0  0  0  0  0  0  0
    0.0000    0.0000    0.0000 C   0  0  0  0  0  0  0  0  0  0  0  0
    0.0000    0.0000    0.0000 C   0  0  0  0  0  0  0  0  0  0  0  0
    0.0000    0.0000    0.0000 C   0  0  0  0  0  0  0  0  0  0  0  0
    0.0000    0.0000    0.0000 C   0  0  0  0  0  0  0  0  0  0  0  0
    0.0000    0.0000    0.0000 C   0  0  0  0  0  0  0  0  0  0  0  0
    0.0000    0.0000    0.0000 N   0  0  0  0  0  0  0  0  0  0  0  0
    0.0000    0.0000    0.0000 C   0  0  0  0  0  0  0  0  0  0  0  0
    0.0000    0.0000    0.0000 O   0  0  0  0  0  0  0  0  0  0  0  0
    0.0000    0.0000    0.0000 C   0  0  0  0  0  0  0  0  0  0  0  0
    0.0000    0.0000    0.0000 C   0  0  0  0  0  0  0  0  0  0  0  0
    0.0000    0.0000    0.0000 C   0  0  0  0  0  0  0  0  0  0  0  0
    0.0000    0.0000    0.0000 C   0  0  0  0  0  0  0  0  0  0  0  0
    0.0000    0.0000    0.0000 C   0  0  0  0  0  0  0  0  0  0  0  0
    0.0000    0.0000    0.0000 C   0  0  0  0  0  0  0  0  0  0  0  0
    0.0000    0.0000    0.0000 C   0  0  0  0  0  0  0  0  0  0  0  0
    0.0000    0.0000    0.0000 C   0  0  0  0  0  0  0  0  0  0  0  0
    0.0000    0.0000    0.0000 C   0  0  0  0  0  0  0  0  0  0  0  0
    0.0000    0.0000    0.0000 C   0  0  0  0  0  0  0  0  0  0  0  0
    0.0000    0.0000    0.0000 C   0  0  0  0  0  0  0  0  0  0  0  0
    0.0000    0.0000    0.0000 C   0  0  0  0  0  0  0  0  0  0  0  0
    0.0000    0.0000    0.0000 N   0  0  0  0  0  0  0  0  0  0  0  0
    0.0000    0.0000    0.0000 C   0  0  0  0  0  0  0  0  0  0  0  0
    0.0000    0.0000    0.0000 N   0  0  0  0  0  0  0  0  0  0  0  0
    0.0000    0.0000    0.0000 C   0  0  0  0  0  0  0  0  0  0  0  0
    0.0000    0.0000    0.0000 N   0  0  0  0  0  0  0  0  0  0  0  0
    0.0000    0.0000    0.0000 C   0  0  0  0  0  0  0  0  0  0  0  0
    0.0000    0.0000    0.0000 C   0  0  0  0  0  0  0  0  0  0  0  0
    0.0000    0.0000    0.0000 C   0  0  0  0  0  0  0  0  0  0  0  0
    0.0000    0.0000    0.0000 C   0  0  0  0  0  0  0  0  0  0  0  0
    0.0000    0.0000    0.0000 O   0  0  0  0  0  0  0  0  0  0  0  0
    0.0000    0.0000    0.0000 C   0  0  0  0  0  0  0  0  0  0  0  0
    0.0000    0.0000    0.0000 C   0  0  0  0  0  0  0  0  0  0  0  0
    0.0000    0.0000    0.0000 C   0  0  0  0  0  0  0  0  0  0  0  0
    0.0000    0.0000    0.0000 C   0  0  0  0  0  0  0  0  0  0  0  0
    0.0000    0.0000    0.0000 C   0  0  0  0  0  0  0  0  0  0  0  0
    0.0000    0.0000    0.0000 C   0  0  0  0  0  0  0  0  0  0  0  0
    0.0000    0.0000    0.0000 F   0  0  0  0  0  0  0  0  0  0  0  0
    0.0000    0.0000    0.0000 C   0  0  0  0  0  0  0  0  0  0  0  0
    0.0000    0.0000    0.0000 C   0  0  0  0  0  0  0  0  0  0  0  0
    0.0000    0.0000    0.0000 Cl  0  0  0  0  0  0  0  0  0  0  0  0
    0.0000    0.0000    0.0000 C   0  0  0  0  0  0  0  0  0  0  0  0
    0.0000    0.0000    0.0000 C   0  0  0  0  0  0  0  0  0  0  0  0
    0.0000    0.0000    0.0000 C   0  0  0  0  0  0  0  0  0  0  0  0
  1  2  1  0
  2  3  2  0
  3  4  1  0
  4  5  2  0
  5  6  1  0
  6  7  2  0
  7  8  1  0
  8  9  1  0
  9 10  2  0
  9 11  1  0
 11 12  2  0
 12 13  1  0
 13 14  2  0
 14 15  1  0
 15 16  2  0
 16 17  1  0
 17 18  2  0
 16 19  1  0
 19 20  2  0
 20 21  1  0
 21 22  2  0
 22 23  1  0
 23 24  2  0
 24 25  1  0
 25 26  2  0
 26 27  1  0
 27 28  1  0
 28 29  2  0
 29 30  1  0
 30 31  2  0
 31 32  1  0
 32 33  1  0
 33 34  1  0
 34 35  2  0
 35 36  1  0
 36 37  2  0
 37 38  1  0
 38 39  1  0
 38 40  2  0
 31 41  1  0
 41 42  1  0
 41 43  2  0
 26 44  1  0
 44 45  2  0
  7  2  1  0
 18 13  1  0
 45 19  1  0
 44 22  1  0
 43 28  1  0
 40 34  1  0
M  END
>  <pIC50>  (492) 
5.31

>  <ChEMBL_ID>  (492) 
CHEMBL1630115

>  <document_journal>  (492) 
J. Med. Chem.

>  <bao_endpoint>  (492) 
BAO_0000190

>  <potential_duplicate>  (492) 
False

>  <uo_units>  (492) 
UO_0000065

>  <canonical_smiles>  (492) 
Nc1ccccc1NC(=O)\C=C\c2ccc(cc2)c3ccc4ncnc(Nc5ccc(OCc6cccc(F)c6)c(Cl)c5)c4c3

>  <parent_molecule_chembl_id>  (492) 
CHEMBL1630115

>  <assay_type>  (492) 
B

>  <src_id>  (492) 
1

>  <ligand_efficiency>  (492) 
{u'le': u'0.16', u'bei': u'8.62', u'sei': u'5.2', u'lle': u'-2.63'}

>  <standard_flag>  (492) 
True

>  <molecule_chembl_id>  (492) 
CHEMBL1630115

>  <target_organism>  (492) 
Homo sapiens

>  <standard_units>  (492) 
nM

>  <record_id>  (492) 
1312822

>  <document_chembl_id>  (492) 
CHEMBL1629443

>  <bao_format>  (492) 
BAO_0000357

>  <data_validity_description>  (492) 
None

>  <activity_id>  (492) 
5112256

>  <standard_type>  (492) 
IC50

>  <target_chembl_id>  (492) 
CHEMBL1862

>  <data_validity_comment>  (492) 
None

>  <published_value>  (492) 
4.9

>  <document_year>  (492) 
2010

>  <target_pref_name>  (492) 
Tyrosine-protein kinase ABL

>  <assay_chembl_id>  (492) 
CHEMBL1640698

>  <standard_relation>  (492) 
=

>  <assay_description>  (492) 
Inhibition of ABL1 by flash plate based radioactive enzyme assay

>  <published_relation>  (492) 
=

>  <standard_value>  (492) 
4900

>  <qudt_units>  (492) 
http://www.openphacts.org/units/Nanomolar

>  <target_tax_id>  (492) 
9606

>  <bao_label>  (492) 
single protein format

>  <published_units>  (492) 
uM

>  <pchembl_value>  (492) 
5.31

>  <published_type>  (492) 
IC50

>  <activity_comment>  (492) 
None

$$$$

     RDKit          

 45 50  0  0  0  0  0  0  0  0999 V2000
    0.0000    0.0000    0.0000 N   0  0  0  0  0  0  0  0  0  0  0  0
    0.0000    0.0000    0.0000 C   0  0  0  0  0  0  0  0  0  0  0  0
    0.0000    0.0000    0.0000 C   0  0  0  0  0  0  0  0  0  0  0  0
    0.0000    0.0000    0.0000 C   0  0  0  0  0  0  0  0  0  0  0  0
    0.0000    0.0000    0.0000 C   0  0  0  0  0  0  0  0  0  0  0  0
    0.0000    0.0000    0.0000 C   0  0  0  0  0  0  0  0  0  0  0  0
    0.0000    0.0000    0.0000 C   0  0  0  0  0  0  0  0  0  0  0  0
    0.0000    0.0000    0.0000 N   0  0  0  0  0  0  0  0  0  0  0  0
    0.0000    0.0000    0.0000 C   0  0  0  0  0  0  0  0  0  0  0  0
    0.0000    0.0000    0.0000 O   0  0  0  0  0  0  0  0  0  0  0  0
    0.0000    0.0000    0.0000 C   0  0  0  0  0  0  0  0  0  0  0  0
    0.0000    0.0000    0.0000 C   0  0  0  0  0  0  0  0  0  0  0  0
    0.0000    0.0000    0.0000 C   0  0  0  0  0  0  0  0  0  0  0  0
    0.0000    0.0000    0.0000 C   0  0  0  0  0  0  0  0  0  0  0  0
    0.0000    0.0000    0.0000 C   0  0  0  0  0  0  0  0  0  0  0  0
    0.0000    0.0000    0.0000 C   0  0  0  0  0  0  0  0  0  0  0  0
    0.0000    0.0000    0.0000 C   0  0  0  0  0  0  0  0  0  0  0  0
    0.0000    0.0000    0.0000 C   0  0  0  0  0  0  0  0  0  0  0  0
    0.0000    0.0000    0.0000 C   0  0  0  0  0  0  0  0  0  0  0  0
    0.0000    0.0000    0.0000 C   0  0  0  0  0  0  0  0  0  0  0  0
    0.0000    0.0000    0.0000 C   0  0  0  0  0  0  0  0  0  0  0  0
    0.0000    0.0000    0.0000 C   0  0  0  0  0  0  0  0  0  0  0  0
    0.0000    0.0000    0.0000 N   0  0  0  0  0  0  0  0  0  0  0  0
    0.0000    0.0000    0.0000 C   0  0  0  0  0  0  0  0  0  0  0  0
    0.0000    0.0000    0.0000 N   0  0  0  0  0  0  0  0  0  0  0  0
    0.0000    0.0000    0.0000 C   0  0  0  0  0  0  0  0  0  0  0  0
    0.0000    0.0000    0.0000 N   0  0  0  0  0  0  0  0  0  0  0  0
    0.0000    0.0000    0.0000 C   0  0  0  0  0  0  0  0  0  0  0  0
    0.0000    0.0000    0.0000 C   0  0  0  0  0  0  0  0  0  0  0  0
    0.0000    0.0000    0.0000 C   0  0  0  0  0  0  0  0  0  0  0  0
    0.0000    0.0000    0.0000 C   0  0  0  0  0  0  0  0  0  0  0  0
    0.0000    0.0000    0.0000 O   0  0  0  0  0  0  0  0  0  0  0  0
    0.0000    0.0000    0.0000 C   0  0  0  0  0  0  0  0  0  0  0  0
    0.0000    0.0000    0.0000 C   0  0  0  0  0  0  0  0  0  0  0  0
    0.0000    0.0000    0.0000 C   0  0  0  0  0  0  0  0  0  0  0  0
    0.0000    0.0000    0.0000 C   0  0  0  0  0  0  0  0  0  0  0  0
    0.0000    0.0000    0.0000 C   0  0  0  0  0  0  0  0  0  0  0  0
    0.0000    0.0000    0.0000 C   0  0  0  0  0  0  0  0  0  0  0  0
    0.0000    0.0000    0.0000 F   0  0  0  0  0  0  0  0  0  0  0  0
    0.0000    0.0000    0.0000 C   0  0  0  0  0  0  0  0  0  0  0  0
    0.0000    0.0000    0.0000 C   0  0  0  0  0  0  0  0  0  0  0  0
    0.0000    0.0000    0.0000 Cl  0  0  0  0  0  0  0  0  0  0  0  0
    0.0000    0.0000    0.0000 C   0  0  0  0  0  0  0  0  0  0  0  0
    0.0000    0.0000    0.0000 C   0  0  0  0  0  0  0  0  0  0  0  0
    0.0000    0.0000    0.0000 C   0  0  0  0  0  0  0  0  0  0  0  0
  1  2  1  0
  2  3  2  0
  3  4  1  0
  4  5  2  0
  5  6  1  0
  6  7  2  0
  7  8  1  0
  8  9  1  0
  9 10  2  0
  9 11  1  0
 11 12  1  0
 12 13  1  0
 13 14  2  0
 14 15  1  0
 15 16  2  0
 16 17  1  0
 17 18  2  0
 16 19  1  0
 19 20  2  0
 20 21  1  0
 21 22  2  0
 22 23  1  0
 23 24  2  0
 24 25  1  0
 25 26  2  0
 26 27  1  0
 27 28  1  0
 28 29  2  0
 29 30  1  0
 30 31  2  0
 31 32  1  0
 32 33  1  0
 33 34  1  0
 34 35  2  0
 35 36  1  0
 36 37  2  0
 37 38  1  0
 38 39  1  0
 38 40  2  0
 31 41  1  0
 41 42  1  0
 41 43  2  0
 26 44  1  0
 44 45  2  0
  7  2  1  0
 18 13  1  0
 45 19  1  0
 44 22  1  0
 43 28  1  0
 40 34  1  0
M  END
>  <pIC50>  (493) 
5.16

>  <ChEMBL_ID>  (493) 
CHEMBL1630116

>  <document_journal>  (493) 
J. Med. Chem.

>  <bao_endpoint>  (493) 
BAO_0000190

>  <potential_duplicate>  (493) 
False

>  <uo_units>  (493) 
UO_0000065

>  <canonical_smiles>  (493) 
Nc1ccccc1NC(=O)CCc2ccc(cc2)c3ccc4ncnc(Nc5ccc(OCc6cccc(F)c6)c(Cl)c5)c4c3

>  <parent_molecule_chembl_id>  (493) 
CHEMBL1630116

>  <assay_type>  (493) 
B

>  <src_id>  (493) 
1

>  <ligand_efficiency>  (493) 
{u'le': u'0.16', u'bei': u'8.35', u'sei': u'5.05', u'lle': u'-2.8'}

>  <standard_flag>  (493) 
True

>  <molecule_chembl_id>  (493) 
CHEMBL1630116

>  <target_organism>  (493) 
Homo sapiens

>  <standard_units>  (493) 
nM

>  <record_id>  (493) 
1312823

>  <document_chembl_id>  (493) 
CHEMBL1629443

>  <bao_format>  (493) 
BAO_0000357

>  <data_validity_description>  (493) 
None

>  <activity_id>  (493) 
5112257

>  <standard_type>  (493) 
IC50

>  <target_chembl_id>  (493) 
CHEMBL1862

>  <data_validity_comment>  (493) 
None

>  <published_value>  (493) 
6.9

>  <document_year>  (493) 
2010

>  <target_pref_name>  (493) 
Tyrosine-protein kinase ABL

>  <assay_chembl_id>  (493) 
CHEMBL1640698

>  <standard_relation>  (493) 
=

>  <assay_description>  (493) 
Inhibition of ABL1 by flash plate based radioactive enzyme assay

>  <published_relation>  (493) 
=

>  <standard_value>  (493) 
6900

>  <qudt_units>  (493) 
http://www.openphacts.org/units/Nanomolar

>  <target_tax_id>  (493) 
9606

>  <bao_label>  (493) 
single protein format

>  <published_units>  (493) 
uM

>  <pchembl_value>  (493) 
5.16

>  <published_type>  (493) 
IC50

>  <activity_comment>  (493) 
None

$$$$

     RDKit          

 36 40  0  0  0  0  0  0  0  0999 V2000
    0.0000    0.0000    0.0000 O   0  0  0  0  0  0  0  0  0  0  0  0
    0.0000    0.0000    0.0000 N   0  0  0  0  0  0  0  0  0  0  0  0
    0.0000    0.0000    0.0000 C   0  0  0  0  0  0  0  0  0  0  0  0
    0.0000    0.0000    0.0000 O   0  0  0  0  0  0  0  0  0  0  0  0
    0.0000    0.0000    0.0000 C   0  0  0  0  0  0  0  0  0  0  0  0
    0.0000    0.0000    0.0000 O   0  0  0  0  0  0  0  0  0  0  0  0
    0.0000    0.0000    0.0000 C   0  0  0  0  0  0  0  0  0  0  0  0
    0.0000    0.0000    0.0000 C   0  0  0  0  0  0  0  0  0  0  0  0
    0.0000    0.0000    0.0000 C   0  0  0  0  0  0  0  0  0  0  0  0
    0.0000    0.0000    0.0000 C   0  0  0  0  0  0  0  0  0  0  0  0
    0.0000    0.0000    0.0000 C   0  0  0  0  0  0  0  0  0  0  0  0
    0.0000    0.0000    0.0000 C   0  0  0  0  0  0  0  0  0  0  0  0
    0.0000    0.0000    0.0000 C   0  0  0  0  0  0  0  0  0  0  0  0
    0.0000    0.0000    0.0000 N   0  0  0  0  0  0  0  0  0  0  0  0
    0.0000    0.0000    0.0000 C   0  0  0  0  0  0  0  0  0  0  0  0
    0.0000    0.0000    0.0000 N   0  0  0  0  0  0  0  0  0  0  0  0
    0.0000    0.0000    0.0000 C   0  0  0  0  0  0  0  0  0  0  0  0
    0.0000    0.0000    0.0000 N   0  0  0  0  0  0  0  0  0  0  0  0
    0.0000    0.0000    0.0000 C   0  0  0  0  0  0  0  0  0  0  0  0
    0.0000    0.0000    0.0000 C   0  0  0  0  0  0  0  0  0  0  0  0
    0.0000    0.0000    0.0000 C   0  0  0  0  0  0  0  0  0  0  0  0
    0.0000    0.0000    0.0000 C   0  0  0  0  0  0  0  0  0  0  0  0
    0.0000    0.0000    0.0000 O   0  0  0  0  0  0  0  0  0  0  0  0
    0.0000    0.0000    0.0000 C   0  0  0  0  0  0  0  0  0  0  0  0
    0.0000    0.0000    0.0000 C   0  0  0  0  0  0  0  0  0  0  0  0
    0.0000    0.0000    0.0000 C   0  0  0  0  0  0  0  0  0  0  0  0
    0.0000    0.0000    0.0000 C   0  0  0  0  0  0  0  0  0  0  0  0
    0.0000    0.0000    0.0000 C   0  0  0  0  0  0  0  0  0  0  0  0
    0.0000    0.0000    0.0000 C   0  0  0  0  0  0  0  0  0  0  0  0
    0.0000    0.0000    0.0000 F   0  0  0  0  0  0  0  0  0  0  0  0
    0.0000    0.0000    0.0000 C   0  0  0  0  0  0  0  0  0  0  0  0
    0.0000    0.0000    0.0000 C   0  0  0  0  0  0  0  0  0  0  0  0
    0.0000    0.0000    0.0000 Cl  0  0  0  0  0  0  0  0  0  0  0  0
    0.0000    0.0000    0.0000 C   0  0  0  0  0  0  0  0  0  0  0  0
    0.0000    0.0000    0.0000 C   0  0  0  0  0  0  0  0  0  0  0  0
    0.0000    0.0000    0.0000 C   0  0  0  0  0  0  0  0  0  0  0  0
  1  2  1  0
  2  3  1  0
  3  4  2  0
  3  5  1  0
  5  6  1  0
  6  7  1  0
  7  8  2  0
  8  9  1  0
  7 10  1  0
 10 11  2  0
 11 12  1  0
 12 13  2  0
 13 14  1  0
 14 15  2  0
 15 16  1  0
 16 17  2  0
 17 18  1  0
 18 19  1  0
 19 20  2  0
 20 21  1  0
 21 22  2  0
 22 23  1  0
 23 24  1  0
 24 25  1  0
 25 26  2  0
 26 27  1  0
 27 28  2  0
 28 29  1  0
 29 30  1  0
 29 31  2  0
 22 32  1  0
 32 33  1  0
 32 34  2  0
 17 35  1  0
 35 36  2  0
  9  5  2  0
 36 10  1  0
 35 13  1  0
 34 19  1  0
 31 25  1  0
M  END
>  <pIC50>  (494) 
5.77

>  <ChEMBL_ID>  (494) 
CHEMBL1630117

>  <document_journal>  (494) 
J. Med. Chem.

>  <bao_endpoint>  (494) 
BAO_0000190

>  <potential_duplicate>  (494) 
False

>  <uo_units>  (494) 
UO_0000065

>  <canonical_smiles>  (494) 
ONC(=O)c1oc(cc1)c2ccc3ncnc(Nc4ccc(OCc5cccc(F)c5)c(Cl)c4)c3c2

>  <parent_molecule_chembl_id>  (494) 
CHEMBL1630117

>  <assay_type>  (494) 
B

>  <src_id>  (494) 
1

>  <ligand_efficiency>  (494) 
{u'le': u'0.22', u'bei': u'11.43', u'sei': u'5.27', u'lle': u'-0.36'}

>  <standard_flag>  (494) 
True

>  <molecule_chembl_id>  (494) 
CHEMBL1630117

>  <target_organism>  (494) 
Homo sapiens

>  <standard_units>  (494) 
nM

>  <record_id>  (494) 
1312824

>  <document_chembl_id>  (494) 
CHEMBL1629443

>  <bao_format>  (494) 
BAO_0000357

>  <data_validity_description>  (494) 
None

>  <activity_id>  (494) 
5112258

>  <standard_type>  (494) 
IC50

>  <target_chembl_id>  (494) 
CHEMBL1862

>  <data_validity_comment>  (494) 
None

>  <published_value>  (494) 
1.7

>  <document_year>  (494) 
2010

>  <target_pref_name>  (494) 
Tyrosine-protein kinase ABL

>  <assay_chembl_id>  (494) 
CHEMBL1640698

>  <standard_relation>  (494) 
=

>  <assay_description>  (494) 
Inhibition of ABL1 by flash plate based radioactive enzyme assay

>  <published_relation>  (494) 
=

>  <standard_value>  (494) 
1700

>  <qudt_units>  (494) 
http://www.openphacts.org/units/Nanomolar

>  <target_tax_id>  (494) 
9606

>  <bao_label>  (494) 
single protein format

>  <published_units>  (494) 
uM

>  <pchembl_value>  (494) 
5.77

>  <published_type>  (494) 
IC50

>  <activity_comment>  (494) 
None

$$$$

     RDKit          

 36 40  0  0  0  0  0  0  0  0999 V2000
    0.0000    0.0000    0.0000 O   0  0  0  0  0  0  0  0  0  0  0  0
    0.0000    0.0000    0.0000 N   0  0  0  0  0  0  0  0  0  0  0  0
    0.0000    0.0000    0.0000 C   0  0  0  0  0  0  0  0  0  0  0  0
    0.0000    0.0000    0.0000 O   0  0  0  0  0  0  0  0  0  0  0  0
    0.0000    0.0000    0.0000 C   0  0  0  0  0  0  0  0  0  0  0  0
    0.0000    0.0000    0.0000 C   0  0  0  0  0  0  0  0  0  0  0  0
    0.0000    0.0000    0.0000 C   0  0  0  0  0  0  0  0  0  0  0  0
    0.0000    0.0000    0.0000 C   0  0  0  0  0  0  0  0  0  0  0  0
    0.0000    0.0000    0.0000 S   0  0  0  0  0  0  0  0  0  0  0  0
    0.0000    0.0000    0.0000 C   0  0  0  0  0  0  0  0  0  0  0  0
    0.0000    0.0000    0.0000 C   0  0  0  0  0  0  0  0  0  0  0  0
    0.0000    0.0000    0.0000 C   0  0  0  0  0  0  0  0  0  0  0  0
    0.0000    0.0000    0.0000 C   0  0  0  0  0  0  0  0  0  0  0  0
    0.0000    0.0000    0.0000 N   0  0  0  0  0  0  0  0  0  0  0  0
    0.0000    0.0000    0.0000 C   0  0  0  0  0  0  0  0  0  0  0  0
    0.0000    0.0000    0.0000 N   0  0  0  0  0  0  0  0  0  0  0  0
    0.0000    0.0000    0.0000 C   0  0  0  0  0  0  0  0  0  0  0  0
    0.0000    0.0000    0.0000 N   0  0  0  0  0  0  0  0  0  0  0  0
    0.0000    0.0000    0.0000 C   0  0  0  0  0  0  0  0  0  0  0  0
    0.0000    0.0000    0.0000 C   0  0  0  0  0  0  0  0  0  0  0  0
    0.0000    0.0000    0.0000 C   0  0  0  0  0  0  0  0  0  0  0  0
    0.0000    0.0000    0.0000 C   0  0  0  0  0  0  0  0  0  0  0  0
    0.0000    0.0000    0.0000 O   0  0  0  0  0  0  0  0  0  0  0  0
    0.0000    0.0000    0.0000 C   0  0  0  0  0  0  0  0  0  0  0  0
    0.0000    0.0000    0.0000 C   0  0  0  0  0  0  0  0  0  0  0  0
    0.0000    0.0000    0.0000 C   0  0  0  0  0  0  0  0  0  0  0  0
    0.0000    0.0000    0.0000 C   0  0  0  0  0  0  0  0  0  0  0  0
    0.0000    0.0000    0.0000 C   0  0  0  0  0  0  0  0  0  0  0  0
    0.0000    0.0000    0.0000 C   0  0  0  0  0  0  0  0  0  0  0  0
    0.0000    0.0000    0.0000 F   0  0  0  0  0  0  0  0  0  0  0  0
    0.0000    0.0000    0.0000 C   0  0  0  0  0  0  0  0  0  0  0  0
    0.0000    0.0000    0.0000 C   0  0  0  0  0  0  0  0  0  0  0  0
    0.0000    0.0000    0.0000 Cl  0  0  0  0  0  0  0  0  0  0  0  0
    0.0000    0.0000    0.0000 C   0  0  0  0  0  0  0  0  0  0  0  0
    0.0000    0.0000    0.0000 C   0  0  0  0  0  0  0  0  0  0  0  0
    0.0000    0.0000    0.0000 C   0  0  0  0  0  0  0  0  0  0  0  0
  1  2  1  0
  2  3  1  0
  3  4  2  0
  3  5  1  0
  5  6  2  0
  6  7  1  0
  7  8  2  0
  8  9  1  0
  8 10  1  0
 10 11  2  0
 11 12  1  0
 12 13  2  0
 13 14  1  0
 14 15  2  0
 15 16  1  0
 16 17  2  0
 17 18  1  0
 18 19  1  0
 19 20  2  0
 20 21  1  0
 21 22  2  0
 22 23  1  0
 23 24  1  0
 24 25  1  0
 25 26  2  0
 26 27  1  0
 27 28  2  0
 28 29  1  0
 29 30  1  0
 29 31  2  0
 22 32  1  0
 32 33  1  0
 32 34  2  0
 17 35  1  0
 35 36  2  0
  9  5  1  0
 36 10  1  0
 35 13  1  0
 34 19  1  0
 31 25  1  0
M  END
>  <pIC50>  (495) 
5.77

>  <ChEMBL_ID>  (495) 
CHEMBL1630118

>  <document_journal>  (495) 
J. Med. Chem.

>  <bao_endpoint>  (495) 
BAO_0000190

>  <potential_duplicate>  (495) 
False

>  <uo_units>  (495) 
UO_0000065

>  <canonical_smiles>  (495) 
ONC(=O)c1ccc(s1)c2ccc3ncnc(Nc4ccc(OCc5cccc(F)c5)c(Cl)c4)c3c2

>  <parent_molecule_chembl_id>  (495) 
CHEMBL1630118

>  <assay_type>  (495) 
B

>  <src_id>  (495) 
1

>  <ligand_efficiency>  (495) 
{u'le': u'0.22', u'bei': u'11.07', u'sei': u'4.63', u'lle': u'-0.92'}

>  <standard_flag>  (495) 
True

>  <molecule_chembl_id>  (495) 
CHEMBL1630118

>  <target_organism>  (495) 
Homo sapiens

>  <standard_units>  (495) 
nM

>  <record_id>  (495) 
1312825

>  <document_chembl_id>  (495) 
CHEMBL1629443

>  <bao_format>  (495) 
BAO_0000357

>  <data_validity_description>  (495) 
None

>  <activity_id>  (495) 
5112259

>  <standard_type>  (495) 
IC50

>  <target_chembl_id>  (495) 
CHEMBL1862

>  <data_validity_comment>  (495) 
None

>  <published_value>  (495) 
1.7

>  <document_year>  (495) 
2010

>  <target_pref_name>  (495) 
Tyrosine-protein kinase ABL

>  <assay_chembl_id>  (495) 
CHEMBL1640698

>  <standard_relation>  (495) 
=

>  <assay_description>  (495) 
Inhibition of ABL1 by flash plate based radioactive enzyme assay

>  <published_relation>  (495) 
=

>  <standard_value>  (495) 
1700

>  <qudt_units>  (495) 
http://www.openphacts.org/units/Nanomolar

>  <target_tax_id>  (495) 
9606

>  <bao_label>  (495) 
single protein format

>  <published_units>  (495) 
uM

>  <pchembl_value>  (495) 
5.77

>  <published_type>  (495) 
IC50

>  <activity_comment>  (495) 
None

$$$$

     RDKit          

 40 44  0  0  0  0  0  0  0  0999 V2000
    0.0000    0.0000    0.0000 C   0  0  0  0  0  0  0  0  0  0  0  0
    0.0000    0.0000    0.0000 S   0  0  0  0  0  0  0  0  0  0  0  0
    0.0000    0.0000    0.0000 O   0  0  0  0  0  0  0  0  0  0  0  0
    0.0000    0.0000    0.0000 O   0  0  0  0  0  0  0  0  0  0  0  0
    0.0000    0.0000    0.0000 C   0  0  0  0  0  0  0  0  0  0  0  0
    0.0000    0.0000    0.0000 C   0  0  0  0  0  0  0  0  0  0  0  0
    0.0000    0.0000    0.0000 N   0  0  0  0  0  0  0  0  0  0  0  0
    0.0000    0.0000    0.0000 C   0  0  0  0  0  0  0  0  0  0  0  0
    0.0000    0.0000    0.0000 C   0  0  0  0  0  0  0  0  0  0  0  0
    0.0000    0.0000    0.0000 O   0  0  0  0  0  0  0  0  0  0  0  0
    0.0000    0.0000    0.0000 C   0  0  0  0  0  0  0  0  0  0  0  0
    0.0000    0.0000    0.0000 C   0  0  0  0  0  0  0  0  0  0  0  0
    0.0000    0.0000    0.0000 C   0  0  0  0  0  0  0  0  0  0  0  0
    0.0000    0.0000    0.0000 C   0  0  0  0  0  0  0  0  0  0  0  0
    0.0000    0.0000    0.0000 C   0  0  0  0  0  0  0  0  0  0  0  0
    0.0000    0.0000    0.0000 C   0  0  0  0  0  0  0  0  0  0  0  0
    0.0000    0.0000    0.0000 C   0  0  0  0  0  0  0  0  0  0  0  0
    0.0000    0.0000    0.0000 N   0  0  0  0  0  0  0  0  0  0  0  0
    0.0000    0.0000    0.0000 C   0  0  0  0  0  0  0  0  0  0  0  0
    0.0000    0.0000    0.0000 N   0  0  0  0  0  0  0  0  0  0  0  0
    0.0000    0.0000    0.0000 C   0  0  0  0  0  0  0  0  0  0  0  0
    0.0000    0.0000    0.0000 N   0  0  0  0  0  0  0  0  0  0  0  0
    0.0000    0.0000    0.0000 C   0  0  0  0  0  0  0  0  0  0  0  0
    0.0000    0.0000    0.0000 C   0  0  0  0  0  0  0  0  0  0  0  0
    0.0000    0.0000    0.0000 C   0  0  0  0  0  0  0  0  0  0  0  0
    0.0000    0.0000    0.0000 C   0  0  0  0  0  0  0  0  0  0  0  0
    0.0000    0.0000    0.0000 O   0  0  0  0  0  0  0  0  0  0  0  0
    0.0000    0.0000    0.0000 C   0  0  0  0  0  0  0  0  0  0  0  0
    0.0000    0.0000    0.0000 C   0  0  0  0  0  0  0  0  0  0  0  0
    0.0000    0.0000    0.0000 C   0  0  0  0  0  0  0  0  0  0  0  0
    0.0000    0.0000    0.0000 C   0  0  0  0  0  0  0  0  0  0  0  0
    0.0000    0.0000    0.0000 C   0  0  0  0  0  0  0  0  0  0  0  0
    0.0000    0.0000    0.0000 C   0  0  0  0  0  0  0  0  0  0  0  0
    0.0000    0.0000    0.0000 F   0  0  0  0  0  0  0  0  0  0  0  0
    0.0000    0.0000    0.0000 C   0  0  0  0  0  0  0  0  0  0  0  0
    0.0000    0.0000    0.0000 C   0  0  0  0  0  0  0  0  0  0  0  0
    0.0000    0.0000    0.0000 Cl  0  0  0  0  0  0  0  0  0  0  0  0
    0.0000    0.0000    0.0000 C   0  0  0  0  0  0  0  0  0  0  0  0
    0.0000    0.0000    0.0000 C   0  0  0  0  0  0  0  0  0  0  0  0
    0.0000    0.0000    0.0000 C   0  0  0  0  0  0  0  0  0  0  0  0
  1  2  1  0
  2  3  2  0
  2  4  2  0
  2  5  1  0
  5  6  1  0
  6  7  1  0
  7  8  1  0
  8  9  1  0
  9 10  1  0
 10 11  1  0
 11 12  2  0
 12 13  1  0
 11 14  1  0
 14 15  2  0
 15 16  1  0
 16 17  2  0
 17 18  1  0
 18 19  2  0
 19 20  1  0
 20 21  2  0
 21 22  1  0
 22 23  1  0
 23 24  2  0
 24 25  1  0
 25 26  2  0
 26 27  1  0
 27 28  1  0
 28 29  1  0
 29 30  2  0
 30 31  1  0
 31 32  2  0
 32 33  1  0
 33 34  1  0
 33 35  2  0
 26 36  1  0
 36 37  1  0
 36 38  2  0
 21 39  1  0
 39 40  2  0
 13  9  2  0
 40 14  1  0
 39 17  1  0
 38 23  1  0
 35 29  1  0
M  END
>  <pIC50>  (496) 
4.64

>  <ChEMBL_ID>  (496) 
CHEMBL554

>  <document_journal>  (496) 
J. Med. Chem.

>  <bao_endpoint>  (496) 
BAO_0000190

>  <potential_duplicate>  (496) 
False

>  <uo_units>  (496) 
UO_0000065

>  <canonical_smiles>  (496) 
CS(=O)(=O)CCNCc1oc(cc1)c2ccc3ncnc(Nc4ccc(OCc5cccc(F)c5)c(Cl)c4)c3c2

>  <parent_molecule_chembl_id>  (496) 
CHEMBL554

>  <assay_type>  (496) 
B

>  <src_id>  (496) 
1

>  <ligand_efficiency>  (496) 
{u'le': u'0.16', u'bei': u'7.98', u'sei': u'4.04', u'lle': u'-1.4'}

>  <standard_flag>  (496) 
True

>  <molecule_chembl_id>  (496) 
CHEMBL554

>  <target_organism>  (496) 
Homo sapiens

>  <standard_units>  (496) 
nM

>  <record_id>  (496) 
1312826

>  <document_chembl_id>  (496) 
CHEMBL1629443

>  <bao_format>  (496) 
BAO_0000357

>  <data_validity_description>  (496) 
None

>  <activity_id>  (496) 
5112260

>  <standard_type>  (496) 
IC50

>  <target_chembl_id>  (496) 
CHEMBL1862

>  <data_validity_comment>  (496) 
None

>  <published_value>  (496) 
23

>  <document_year>  (496) 
2010

>  <target_pref_name>  (496) 
Tyrosine-protein kinase ABL

>  <assay_chembl_id>  (496) 
CHEMBL1640698

>  <standard_relation>  (496) 
=

>  <assay_description>  (496) 
Inhibition of ABL1 by flash plate based radioactive enzyme assay

>  <published_relation>  (496) 
=

>  <standard_value>  (496) 
23000

>  <qudt_units>  (496) 
http://www.openphacts.org/units/Nanomolar

>  <target_tax_id>  (496) 
9606

>  <bao_label>  (496) 
single protein format

>  <published_units>  (496) 
uM

>  <pchembl_value>  (496) 
4.64

>  <published_type>  (496) 
IC50

>  <activity_comment>  (496) 
None

$$$$

     RDKit          

 39 43  0  0  0  0  0  0  0  0999 V2000
    0.0000    0.0000    0.0000 C   0  0  0  0  0  0  0  0  0  0  0  0
    0.0000    0.0000    0.0000 N   0  0  0  0  0  0  0  0  0  0  0  0
    0.0000    0.0000    0.0000 C   0  0  0  0  0  0  0  0  0  0  0  0
    0.0000    0.0000    0.0000 C   0  0  0  0  0  0  0  0  0  0  0  0
    0.0000    0.0000    0.0000 C   0  0  0  0  0  0  0  0  0  0  0  0
    0.0000    0.0000    0.0000 C   0  0  0  0  0  0  0  0  0  0  0  0
    0.0000    0.0000    0.0000 C   0  0  0  0  0  0  0  0  0  0  0  0
    0.0000    0.0000    0.0000 C   0  0  0  0  0  0  0  0  0  0  0  0
    0.0000    0.0000    0.0000 C   0  0  0  0  0  0  0  0  0  0  0  0
    0.0000    0.0000    0.0000 C   0  0  0  0  0  0  0  0  0  0  0  0
    0.0000    0.0000    0.0000 C   0  0  0  0  0  0  0  0  0  0  0  0
    0.0000    0.0000    0.0000 F   0  0  0  0  0  0  0  0  0  0  0  0
    0.0000    0.0000    0.0000 F   0  0  0  0  0  0  0  0  0  0  0  0
    0.0000    0.0000    0.0000 F   0  0  0  0  0  0  0  0  0  0  0  0
    0.0000    0.0000    0.0000 C   0  0  0  0  0  0  0  0  0  0  0  0
    0.0000    0.0000    0.0000 O   0  0  0  0  0  0  0  0  0  0  0  0
    0.0000    0.0000    0.0000 N   0  0  0  0  0  0  0  0  0  0  0  0
    0.0000    0.0000    0.0000 C   0  0  0  0  0  0  0  0  0  0  0  0
    0.0000    0.0000    0.0000 C   0  0  0  0  0  0  0  0  0  0  0  0
    0.0000    0.0000    0.0000 C   0  0  0  0  0  0  0  0  0  0  0  0
    0.0000    0.0000    0.0000 C   0  0  0  0  0  0  0  0  0  0  0  0
    0.0000    0.0000    0.0000 C   0  0  0  0  0  0  0  0  0  0  0  0
    0.0000    0.0000    0.0000 C   0  0  0  0  0  0  0  0  0  0  0  0
    0.0000    0.0000    0.0000 C   0  0  0  0  0  0  0  0  0  0  0  0
    0.0000    0.0000    0.0000 O   0  0  0  0  0  0  0  0  0  0  0  0
    0.0000    0.0000    0.0000 C   0  0  0  0  0  0  0  0  0  0  0  0
    0.0000    0.0000    0.0000 C   0  0  0  0  0  0  0  0  0  0  0  0
    0.0000    0.0000    0.0000 C   0  0  0  0  0  0  0  0  0  0  0  0
    0.0000    0.0000    0.0000 N   0  0  0  0  0  0  0  0  0  0  0  0
    0.0000    0.0000    0.0000 C   0  0  0  0  0  0  0  0  0  0  0  0
    0.0000    0.0000    0.0000 N   0  0  0  0  0  0  0  0  0  0  0  0
    0.0000    0.0000    0.0000 C   0  0  0  0  0  0  0  0  0  0  0  0
    0.0000    0.0000    0.0000 O   0  0  0  0  0  0  0  0  0  0  0  0
    0.0000    0.0000    0.0000 C   0  0  0  0  0  0  0  0  0  0  0  0
    0.0000    0.0000    0.0000 C   0  0  0  0  0  0  0  0  0  0  0  0
    0.0000    0.0000    0.0000 C   0  0  0  0  0  0  0  0  0  0  0  0
    0.0000    0.0000    0.0000 C   0  0  0  0  0  0  0  0  0  0  0  0
    0.0000    0.0000    0.0000 C   0  0  0  0  0  0  0  0  0  0  0  0
    0.0000    0.0000    0.0000 C   0  0  0  0  0  0  0  0  0  0  0  0
  1  2  1  0
  2  3  1  0
  2  4  1  0
  4  5  1  0
  5  6  2  0
  6  7  1  0
  7  8  2  0
  8  9  1  0
  9 10  2  0
  9 11  1  0
 11 12  1  0
 11 13  1  0
 11 14  1  0
  7 15  1  0
 15 16  2  0
 15 17  1  0
 17 18  1  0
 18 19  1  0
 19 20  1  0
 20 21  1  0
 21 22  2  0
 22 23  1  0
 23 24  2  0
 24 25  1  0
 25 26  1  0
 26 27  2  0
 27 28  1  0
 28 29  2  0
 29 30  1  0
 30 31  1  0
 31 32  1  0
 32 33  2  0
 32 34  1  0
 34 35  1  0
 35 36  1  0
 24 37  1  0
 37 38  2  0
 38 39  1  0
 10  5  1  0
 39 18  1  0
 38 21  1  0
 36 26  1  0
 36 30  2  0
M  END
>  <pIC50>  (497) 
8.92

>  <ChEMBL_ID>  (497) 
CHEMBL1688860

>  <document_journal>  (497) 
J. Med. Chem.

>  <bao_endpoint>  (497) 
BAO_0000190

>  <potential_duplicate>  (497) 
False

>  <uo_units>  (497) 
UO_0000065

>  <canonical_smiles>  (497) 
CN(C)Cc1cc(cc(c1)C(F)(F)F)C(=O)N[C@@H]2CCc3ccc(Oc4ccnc5NC(=O)CCc45)cc3C2

>  <parent_molecule_chembl_id>  (497) 
CHEMBL1688860

>  <assay_type>  (497) 
B

>  <src_id>  (497) 
1

>  <ligand_efficiency>  (497) 
{u'le': u'0.31', u'bei': u'16.56', u'sei': u'10.68', u'lle': u'4.01'}

>  <standard_flag>  (497) 
True

>  <molecule_chembl_id>  (497) 
CHEMBL1688860

>  <target_organism>  (497) 
Homo sapiens

>  <standard_units>  (497) 
nM

>  <record_id>  (497) 
1337974

>  <document_chembl_id>  (497) 
CHEMBL1687927

>  <bao_format>  (497) 
BAO_0000357

>  <data_validity_description>  (497) 
None

>  <activity_id>  (497) 
5310421

>  <standard_type>  (497) 
IC50

>  <target_chembl_id>  (497) 
CHEMBL1862

>  <data_validity_comment>  (497) 
None

>  <published_value>  (497) 
1.2

>  <document_year>  (497) 
2011

>  <target_pref_name>  (497) 
Tyrosine-protein kinase ABL

>  <assay_chembl_id>  (497) 
CHEMBL1693588

>  <standard_relation>  (497) 
=

>  <assay_description>  (497) 
Inhibition of Abl1

>  <published_relation>  (497) 
=

>  <standard_value>  (497) 
1.2

>  <qudt_units>  (497) 
http://www.openphacts.org/units/Nanomolar

>  <target_tax_id>  (497) 
9606

>  <bao_label>  (497) 
single protein format

>  <published_units>  (497) 
nM

>  <pchembl_value>  (497) 
8.92

>  <published_type>  (497) 
IC50

>  <activity_comment>  (497) 
None

$$$$

     RDKit          

 30 34  0  0  0  0  0  0  0  0999 V2000
    0.0000    0.0000    0.0000 C   0  0  0  0  0  0  0  0  0  0  0  0
    0.0000    0.0000    0.0000 C   0  0  0  0  0  0  0  0  0  0  0  0
    0.0000    0.0000    0.0000 O   0  0  0  0  0  0  0  0  0  0  0  0
    0.0000    0.0000    0.0000 N   0  0  0  0  0  0  0  0  0  0  0  0
    0.0000    0.0000    0.0000 C   0  0  0  0  0  0  0  0  0  0  0  0
    0.0000    0.0000    0.0000 C   0  0  0  0  0  0  0  0  0  0  0  0
    0.0000    0.0000    0.0000 C   0  0  0  0  0  0  0  0  0  0  0  0
    0.0000    0.0000    0.0000 C   0  0  0  0  0  0  0  0  0  0  0  0
    0.0000    0.0000    0.0000 C   0  0  0  0  0  0  0  0  0  0  0  0
    0.0000    0.0000    0.0000 C   0  0  0  0  0  0  0  0  0  0  0  0
    0.0000    0.0000    0.0000 C   0  0  0  0  0  0  0  0  0  0  0  0
    0.0000    0.0000    0.0000 C   0  0  0  0  0  0  0  0  0  0  0  0
    0.0000    0.0000    0.0000 N   0  0  0  0  0  0  0  0  0  0  0  0
    0.0000    0.0000    0.0000 C   0  0  0  0  0  0  0  0  0  0  0  0
    0.0000    0.0000    0.0000 C   0  0  0  0  0  0  0  0  0  0  0  0
    0.0000    0.0000    0.0000 C   0  0  0  0  0  0  0  0  0  0  0  0
    0.0000    0.0000    0.0000 C   0  0  0  0  0  0  0  0  0  0  0  0
    0.0000    0.0000    0.0000 C   0  0  0  0  0  0  0  0  0  0  0  0
    0.0000    0.0000    0.0000 C   0  0  0  0  0  0  0  0  0  0  0  0
    0.0000    0.0000    0.0000 C   0  0  0  0  0  0  0  0  0  0  0  0
    0.0000    0.0000    0.0000 C   0  0  0  0  0  0  0  0  0  0  0  0
    0.0000    0.0000    0.0000 C   0  0  0  0  0  0  0  0  0  0  0  0
    0.0000    0.0000    0.0000 N   0  0  0  0  0  0  0  0  0  0  0  0
    0.0000    0.0000    0.0000 C   0  0  0  0  0  0  0  0  0  0  0  0
    0.0000    0.0000    0.0000 C   0  0  0  0  0  0  0  0  0  0  0  0
    0.0000    0.0000    0.0000 N   0  0  0  0  0  0  0  0  0  0  0  0
    0.0000    0.0000    0.0000 N   0  0  0  0  0  0  0  0  0  0  0  0
    0.0000    0.0000    0.0000 C   0  0  0  0  0  0  0  0  0  0  0  0
    0.0000    0.0000    0.0000 C   0  0  0  0  0  0  0  0  0  0  0  0
    0.0000    0.0000    0.0000 N   0  0  0  0  0  0  0  0  0  0  0  0
  1  2  1  0
  2  3  2  0
  2  4  1  0
  4  5  1  0
  5  6  1  0
  6  7  1  0
  7  8  1  0
  8  9  1  0
  9 10  1  0
 10 11  1  0
  9 12  1  0
 12 13  2  0
 13 14  1  0
 14 15  1  0
 15 16  2  0
 16 17  1  0
 17 18  2  0
 18 19  1  0
 19 20  2  0
 20 21  1  0
 21 22  2  0
 22 23  1  0
 14 24  2  0
 24 25  1  0
 25 26  1  0
 25 27  2  0
 27 28  1  0
 28 29  2  0
 29 30  1  0
 11  6  1  0
 30 12  1  0
 23 15  1  0
 22 17  1  0
 30 24  1  0
M  END
>  <pIC50>  (498) 
5.71

>  <ChEMBL_ID>  (498) 
CHEMBL1762110

>  <document_journal>  (498) 
Bioorg. Med. Chem. Lett.

>  <bao_endpoint>  (498) 
BAO_0000190

>  <potential_duplicate>  (498) 
False

>  <uo_units>  (498) 
UO_0000065

>  <canonical_smiles>  (498) 
CC(=O)NC[C@@H]1CC[C@H](CC1)c2nc(c3cc4ccccc4[nH]3)c5c(N)nccn25

>  <parent_molecule_chembl_id>  (498) 
CHEMBL1762110

>  <assay_type>  (498) 
B

>  <src_id>  (498) 
1

>  <ligand_efficiency>  (498) 
{u'le': u'0.26', u'bei': u'14.18', u'sei': u'5.65', u'lle': u'2.73'}

>  <standard_flag>  (498) 
True

>  <molecule_chembl_id>  (498) 
CHEMBL1762110

>  <target_organism>  (498) 
Homo sapiens

>  <standard_units>  (498) 
nM

>  <record_id>  (498) 
1414479

>  <document_chembl_id>  (498) 
CHEMBL1759853

>  <bao_format>  (498) 
BAO_0000357

>  <data_validity_description>  (498) 
None

>  <activity_id>  (498) 
6154881

>  <standard_type>  (498) 
IC50

>  <target_chembl_id>  (498) 
CHEMBL1862

>  <data_validity_comment>  (498) 
None

>  <published_value>  (498) 
1.96

>  <document_year>  (498) 
2011

>  <target_pref_name>  (498) 
Tyrosine-protein kinase ABL

>  <assay_chembl_id>  (498) 
CHEMBL1762894

>  <standard_relation>  (498) 
=

>  <assay_description>  (498) 
Inhibition of Abl

>  <published_relation>  (498) 
=

>  <standard_value>  (498) 
1960

>  <qudt_units>  (498) 
http://www.openphacts.org/units/Nanomolar

>  <target_tax_id>  (498) 
9606

>  <bao_label>  (498) 
single protein format

>  <published_units>  (498) 
uM

>  <pchembl_value>  (498) 
5.71

>  <published_type>  (498) 
IC50

>  <activity_comment>  (498) 
None

$$$$

     RDKit          

 31 34  0  0  0  0  0  0  0  0999 V2000
    0.0000    0.0000    0.0000 C   0  0  0  0  0  0  0  0  0  0  0  0
    0.0000    0.0000    0.0000 C   0  0  0  0  0  0  0  0  0  0  0  0
    0.0000    0.0000    0.0000 C   0  0  0  0  0  0  0  0  0  0  0  0
    0.0000    0.0000    0.0000 C   0  0  0  0  0  0  0  0  0  0  0  0
    0.0000    0.0000    0.0000 C   0  0  0  0  0  0  0  0  0  0  0  0
    0.0000    0.0000    0.0000 N   0  0  0  0  0  0  0  0  0  0  0  0
    0.0000    0.0000    0.0000 C   0  0  0  0  0  0  0  0  0  0  0  0
    0.0000    0.0000    0.0000 O   0  0  0  0  0  0  0  0  0  0  0  0
    0.0000    0.0000    0.0000 C   0  0  0  0  0  0  0  0  0  0  0  0
    0.0000    0.0000    0.0000 C   0  0  0  0  0  0  0  0  0  0  0  0
    0.0000    0.0000    0.0000 C   0  0  0  0  0  0  0  0  0  0  0  0
    0.0000    0.0000    0.0000 C   0  0  0  0  0  0  0  0  0  0  0  0
    0.0000    0.0000    0.0000 C   0  0  0  0  0  0  0  0  0  0  0  0
    0.0000    0.0000    0.0000 Cl  0  0  0  0  0  0  0  0  0  0  0  0
    0.0000    0.0000    0.0000 C   0  0  0  0  0  0  0  0  0  0  0  0
    0.0000    0.0000    0.0000 C   0  0  0  0  0  0  0  0  0  0  0  0
    0.0000    0.0000    0.0000 C   0  0  0  0  0  0  0  0  0  0  0  0
    0.0000    0.0000    0.0000 C   0  0  0  0  0  0  0  0  0  0  0  0
    0.0000    0.0000    0.0000 N   0  0  0  0  0  0  0  0  0  0  0  0
    0.0000    0.0000    0.0000 C   0  0  0  0  0  0  0  0  0  0  0  0
    0.0000    0.0000    0.0000 N   0  0  0  0  0  0  0  0  0  0  0  0
    0.0000    0.0000    0.0000 C   0  0  0  0  0  0  0  0  0  0  0  0
    0.0000    0.0000    0.0000 C   0  0  0  0  0  0  0  0  0  0  0  0
    0.0000    0.0000    0.0000 C   0  0  0  0  0  0  0  0  0  0  0  0
    0.0000    0.0000    0.0000 N   0  0  0  0  0  0  0  0  0  0  0  0
    0.0000    0.0000    0.0000 C   0  0  0  0  0  0  0  0  0  0  0  0
    0.0000    0.0000    0.0000 C   0  0  0  0  0  0  0  0  0  0  0  0
    0.0000    0.0000    0.0000 C   0  0  0  0  0  0  0  0  0  0  0  0
    0.0000    0.0000    0.0000 C   0  0  0  0  0  0  0  0  0  0  0  0
    0.0000    0.0000    0.0000 N   0  0  0  0  0  0  0  0  0  0  0  0
    0.0000    0.0000    0.0000 C   0  0  0  0  0  0  0  0  0  0  0  0
  1  2  1  0
  2  3  2  0
  3  4  1  0
  4  5  2  0
  5  6  1  0
  6  7  1  0
  7  8  2  0
  7  9  1  0
  9 10  2  0
 10 11  1  0
 11 12  2  0
 12 13  1  0
 13 14  1  0
 12 15  1  0
 15 16  2  0
  5 17  1  0
 17 18  2  0
 18 19  1  0
 19 20  1  0
 20 21  2  0
 21 22  1  0
 22 23  2  0
 23 24  1  0
 24 25  2  0
 24 26  1  0
 26 27  2  0
 27 28  1  0
 28 29  2  0
 29 30  1  0
 30 31  2  0
 18  2  1  0
 16  9  1  0
 25 20  1  0
 31 26  1  0
M  END
>  <pIC50>  (499) 
5.16

>  <ChEMBL_ID>  (499) 
CHEMBL1765715

>  <document_journal>  (499) 
J. Med. Chem.

>  <bao_endpoint>  (499) 
BAO_0000190

>  <potential_duplicate>  (499) 
False

>  <uo_units>  (499) 
UO_0000065

>  <canonical_smiles>  (499) 
Cc1ccc(NC(=O)c2ccc(CCl)cc2)cc1Nc3nccc(n3)c4cccnc4

>  <parent_molecule_chembl_id>  (499) 
CHEMBL1765715

>  <assay_type>  (499) 
B

>  <src_id>  (499) 
1

>  <ligand_efficiency>  (499) 
{u'le': u'0.23', u'bei': u'12', u'sei': u'6.46', u'lle': u'0.37'}

>  <standard_flag>  (499) 
True

>  <molecule_chembl_id>  (499) 
CHEMBL1765715

>  <target_organism>  (499) 
Homo sapiens

>  <standard_units>  (499) 
nM

>  <record_id>  (499) 
1416410

>  <document_chembl_id>  (499) 
CHEMBL1764978

>  <bao_format>  (499) 
BAO_0000357

>  <data_validity_description>  (499) 
None

>  <activity_id>  (499) 
6167540

>  <standard_type>  (499) 
IC50

>  <target_chembl_id>  (499) 
CHEMBL1862

>  <data_validity_comment>  (499) 
None

>  <published_value>  (499) 
6.95

>  <document_year>  (499) 
2011

>  <target_pref_name>  (499) 
Tyrosine-protein kinase ABL

>  <assay_chembl_id>  (499) 
CHEMBL1768765

>  <standard_relation>  (499) 
=

>  <assay_description>  (499) 
Inhibition of human wild type ABL1 assessed as [gamma33P]ATP incorporation into poly-Ala-Glu-Lys-Tyr after 60 mins by microplate scintillation counting

>  <published_relation>  (499) 
=

>  <standard_value>  (499) 
6950

>  <qudt_units>  (499) 
http://www.openphacts.org/units/Nanomolar

>  <target_tax_id>  (499) 
9606

>  <bao_label>  (499) 
single protein format

>  <published_units>  (499) 
10'-6M

>  <pchembl_value>  (499) 
5.16

>  <published_type>  (499) 
IC50

>  <activity_comment>  (499) 
None

$$$$

     RDKit          

 32 37  0  0  0  0  0  0  0  0999 V2000
    0.0000    0.0000    0.0000 C   0  0  0  0  0  0  0  0  0  0  0  0
    0.0000    0.0000    0.0000 C   0  0  0  0  0  0  0  0  0  0  0  0
    0.0000    0.0000    0.0000 C   0  0  0  0  0  0  0  0  0  0  0  0
    0.0000    0.0000    0.0000 C   0  0  0  0  0  0  0  0  0  0  0  0
    0.0000    0.0000    0.0000 C   0  0  0  0  0  0  0  0  0  0  0  0
    0.0000    0.0000    0.0000 C   0  0  0  0  0  0  0  0  0  0  0  0
    0.0000    0.0000    0.0000 C   0  0  0  0  0  0  0  0  0  0  0  0
    0.0000    0.0000    0.0000 C   0  0  0  0  0  0  0  0  0  0  0  0
    0.0000    0.0000    0.0000 C   0  0  0  0  0  0  0  0  0  0  0  0
    0.0000    0.0000    0.0000 C   0  0  0  0  0  0  0  0  0  0  0  0
    0.0000    0.0000    0.0000 O   0  0  0  0  0  0  0  0  0  0  0  0
    0.0000    0.0000    0.0000 C   0  0  0  0  0  0  0  0  0  0  0  0
    0.0000    0.0000    0.0000 C   0  0  0  0  0  0  0  0  0  0  0  0
    0.0000    0.0000    0.0000 N   0  0  0  0  0  0  0  0  0  0  0  0
    0.0000    0.0000    0.0000 C   0  0  0  0  0  0  0  0  0  0  0  0
    0.0000    0.0000    0.0000 C   0  0  0  0  0  0  0  0  0  0  0  0
    0.0000    0.0000    0.0000 C   0  0  0  0  0  0  0  0  0  0  0  0
    0.0000    0.0000    0.0000 C   0  0  0  0  0  0  0  0  0  0  0  0
    0.0000    0.0000    0.0000 C   0  0  0  0  0  0  0  0  0  0  0  0
    0.0000    0.0000    0.0000 C   0  0  0  0  0  0  0  0  0  0  0  0
    0.0000    0.0000    0.0000 C   0  0  0  0  0  0  0  0  0  0  0  0
    0.0000    0.0000    0.0000 N   0  0  0  0  0  0  0  0  0  0  0  0
    0.0000    0.0000    0.0000 C   0  0  0  0  0  0  0  0  0  0  0  0
    0.0000    0.0000    0.0000 C   0  0  0  0  0  0  0  0  0  0  0  0
    0.0000    0.0000    0.0000 C   0  0  0  0  0  0  0  0  0  0  0  0
    0.0000    0.0000    0.0000 N   0  0  0  0  0  0  0  0  0  0  0  0
    0.0000    0.0000    0.0000 C   0  0  0  0  0  0  0  0  0  0  0  0
    0.0000    0.0000    0.0000 C   0  0  0  0  0  0  0  0  0  0  0  0
    0.0000    0.0000    0.0000 C   0  0  0  0  0  0  0  0  0  0  0  0
    0.0000    0.0000    0.0000 C   0  0  0  0  0  0  0  0  0  0  0  0
    0.0000    0.0000    0.0000 O   0  0  0  0  0  0  0  0  0  0  0  0
    0.0000    0.0000    0.0000 C   0  0  0  0  0  0  0  0  0  0  0  0
  1  2  1  0
  2  3  1  0
  2  4  1  0
  4  5  2  0
  5  6  1  0
  6  7  2  0
  7  8  1  0
  8  9  2  0
  9 10  1  0
 10 11  2  0
 10 12  1  0
 12 13  2  0
 13 14  1  0
 14 15  1  0
 15 16  2  0
 16 17  1  0
 17 18  2  0
 18 19  1  0
 19 20  2  0
 17 21  1  0
 21 22  3  0
  6 23  1  0
 23 24  1  0
 24 25  1  0
 25 26  1  0
 26 27  1  0
 27 28  1  0
 26 29  1  0
 29 30  1  0
 30 31  1  0
 31 32  1  0
 13  2  1  0
  9  4  1  0
 20 12  1  0
 20 15  1  0
 28 23  1  0
 32 29  1  0
M  END
>  <pIC50>  (500) 
6.43

>  <ChEMBL_ID>  (500) 
CHEMBL1779202

>  <document_journal>  (500) 
Bioorg. Med. Chem. Lett.

>  <bao_endpoint>  (500) 
BAO_0000190

>  <potential_duplicate>  (500) 
False

>  <uo_units>  (500) 
UO_0000065

>  <canonical_smiles>  (500) 
CC1(C)c2cc(ccc2C(=O)c3c1[nH]c4cc(ccc34)C#N)C5CCN(CC5)C6COC6

>  <parent_molecule_chembl_id>  (500) 
CHEMBL1779202

>  <assay_type>  (500) 
B

>  <src_id>  (500) 
1

>  <ligand_efficiency>  (500) 
{u'le': u'0.27', u'bei': u'15.12', u'sei': u'9.31', u'lle': u'1.72'}

>  <standard_flag>  (500) 
True

>  <molecule_chembl_id>  (500) 
CHEMBL1779202

>  <target_organism>  (500) 
Homo sapiens

>  <standard_units>  (500) 
nM

>  <record_id>  (500) 
1425158

>  <document_chembl_id>  (500) 
CHEMBL1777813

>  <bao_format>  (500) 
BAO_0000357

>  <data_validity_description>  (500) 
None

>  <activity_id>  (500) 
6201873

>  <standard_type>  (500) 
IC50

>  <target_chembl_id>  (500) 
CHEMBL1862

>  <data_validity_comment>  (500) 
None

>  <published_value>  (500) 
0.37

>  <document_year>  (500) 
2011

>  <target_pref_name>  (500) 
Tyrosine-protein kinase ABL

>  <assay_chembl_id>  (500) 
CHEMBL1781376

>  <standard_relation>  (500) 
=

>  <assay_description>  (500) 
Inhibition of Abl assessed as biotin-EGPWLEEEEEAYGWMDF peptide phosphorylation by TR-FRET assay

>  <published_relation>  (500) 
=

>  <standard_value>  (500) 
370

>  <qudt_units>  (500) 
http://www.openphacts.org/units/Nanomolar

>  <target_tax_id>  (500) 
9606

>  <bao_label>  (500) 
single protein format

>  <published_units>  (500) 
uM

>  <pchembl_value>  (500) 
6.43

>  <published_type>  (500) 
IC50

>  <activity_comment>  (500) 
None

$$$$

     RDKit          

 39 42  0  0  0  0  0  0  0  0999 V2000
    0.0000    0.0000    0.0000 C   0  0  0  0  0  0  0  0  0  0  0  0
    0.0000    0.0000    0.0000 N   0  0  0  0  0  0  0  0  0  0  0  0
    0.0000    0.0000    0.0000 C   0  0  0  0  0  0  0  0  0  0  0  0
    0.0000    0.0000    0.0000 C   0  0  0  0  0  0  0  0  0  0  0  0
    0.0000    0.0000    0.0000 N   0  0  0  0  0  0  0  0  0  0  0  0
    0.0000    0.0000    0.0000 C   0  0  0  0  0  0  0  0  0  0  0  0
    0.0000    0.0000    0.0000 C   0  0  0  0  0  0  0  0  0  0  0  0
    0.0000    0.0000    0.0000 C   0  0  0  0  0  0  0  0  0  0  0  0
    0.0000    0.0000    0.0000 C   0  0  0  0  0  0  0  0  0  0  0  0
    0.0000    0.0000    0.0000 C   0  0  0  0  0  0  0  0  0  0  0  0
    0.0000    0.0000    0.0000 N   0  0  0  0  0  0  0  0  0  0  0  0
    0.0000    0.0000    0.0000 C   0  0  0  0  0  0  0  0  0  0  0  0
    0.0000    0.0000    0.0000 O   0  0  0  0  0  0  0  0  0  0  0  0
    0.0000    0.0000    0.0000 C   0  0  0  0  0  0  0  0  0  0  0  0
    0.0000    0.0000    0.0000 C   0  0  0  0  0  0  0  0  0  0  0  0
    0.0000    0.0000    0.0000 C   0  0  0  0  0  0  0  0  0  0  0  0
    0.0000    0.0000    0.0000 C   0  0  0  0  0  0  0  0  0  0  0  0
    0.0000    0.0000    0.0000 C   0  0  0  0  0  0  0  0  0  0  0  0
    0.0000    0.0000    0.0000 C   0  0  0  0  0  0  0  0  0  0  0  0
    0.0000    0.0000    0.0000 C   0  0  0  0  0  0  0  0  0  0  0  0
    0.0000    0.0000    0.0000 C   0  0  0  0  0  0  0  0  0  0  0  0
    0.0000    0.0000    0.0000 C   0  0  0  0  0  0  0  0  0  0  0  0
    0.0000    0.0000    0.0000 C   0  0  0  0  0  0  0  0  0  0  0  0
    0.0000    0.0000    0.0000 C   0  0  0  0  0  0  0  0  0  0  0  0
    0.0000    0.0000    0.0000 N   0  0  0  0  0  0  0  0  0  0  0  0
    0.0000    0.0000    0.0000 C   0  0  0  0  0  0  0  0  0  0  0  0
    0.0000    0.0000    0.0000 N   0  0  0  0  0  0  0  0  0  0  0  0
    0.0000    0.0000    0.0000 C   0  0  0  0  0  0  0  0  0  0  0  0
    0.0000    0.0000    0.0000 O   0  0  0  0  0  0  0  0  0  0  0  0
    0.0000    0.0000    0.0000 C   0  0  0  0  0  0  0  0  0  0  0  0
    0.0000    0.0000    0.0000 S   0  0  0  0  0  0  0  0  0  0  0  0
    0.0000    0.0000    0.0000 C   0  0  0  0  0  0  0  0  0  0  0  0
    0.0000    0.0000    0.0000 C   0  0  0  0  0  0  0  0  0  0  0  0
    0.0000    0.0000    0.0000 C   0  0  0  0  0  0  0  0  0  0  0  0
    0.0000    0.0000    0.0000 F   0  0  0  0  0  0  0  0  0  0  0  0
    0.0000    0.0000    0.0000 F   0  0  0  0  0  0  0  0  0  0  0  0
    0.0000    0.0000    0.0000 F   0  0  0  0  0  0  0  0  0  0  0  0
    0.0000    0.0000    0.0000 C   0  0  0  0  0  0  0  0  0  0  0  0
    0.0000    0.0000    0.0000 C   0  0  0  0  0  0  0  0  0  0  0  0
  1  2  1  0
  2  3  1  0
  3  4  1  0
  4  5  1  0
  5  6  1  0
  6  7  1  0
  7  8  2  0
  8  9  1  0
  9 10  2  0
 10 11  1  0
 11 12  1  0
 12 13  2  0
 12 14  1  0
 14 15  2  0
 15 16  1  0
 16 17  2  0
 17 18  1  0
 17 19  1  0
 19 20  2  0
 19 21  1  0
 21 22  3  0
 22 23  1  0
 23 24  2  0
 24 25  1  0
 25 26  2  0
 26 27  1  0
 27 28  1  0
 28 29  2  0
 28 30  1  0
 26 31  1  0
 10 32  1  0
 32 33  2  0
 33 34  1  0
 34 35  1  0
 34 36  1  0
 34 37  1  0
  5 38  1  0
 38 39  1  0
 39  2  1  0
 33  7  1  0
 20 14  1  0
 31 23  1  0
M  END
>  <pIC50>  (501) 
7.92

>  <ChEMBL_ID>  (501) 
CHEMBL1784641

>  <document_journal>  (501) 
Bioorg. Med. Chem. Lett.

>  <bao_endpoint>  (501) 
BAO_0000190

>  <potential_duplicate>  (501) 
False

>  <uo_units>  (501) 
UO_0000065

>  <canonical_smiles>  (501) 
CN1CCN(Cc2ccc(NC(=O)c3ccc(C)c(c3)C#Cc4cnc(NC(=O)C)s4)cc2C(F)(F)F)CC1

>  <parent_molecule_chembl_id>  (501) 
CHEMBL1784641

>  <assay_type>  (501) 
B

>  <src_id>  (501) 
1

>  <ligand_efficiency>  (501) 
{u'le': u'0.28', u'bei': u'14.26', u'sei': u'7.49', u'lle': u'3.33'}

>  <standard_flag>  (501) 
True

>  <molecule_chembl_id>  (501) 
CHEMBL1784641

>  <target_organism>  (501) 
Homo sapiens

>  <standard_units>  (501) 
nM

>  <record_id>  (501) 
1429605

>  <document_chembl_id>  (501) 
CHEMBL1781971

>  <bao_format>  (501) 
BAO_0000357

>  <data_validity_description>  (501) 
None

>  <activity_id>  (501) 
6219748

>  <standard_type>  (501) 
IC50

>  <target_chembl_id>  (501) 
CHEMBL1862

>  <data_validity_comment>  (501) 
None

>  <published_value>  (501) 
12

>  <document_year>  (501) 
2011

>  <target_pref_name>  (501) 
Tyrosine-protein kinase ABL

>  <assay_chembl_id>  (501) 
CHEMBL1787640

>  <standard_relation>  (501) 
=

>  <assay_description>  (501) 
Inhibition of wild type human ABL using [EAIYAAPFAKKK] peptide substrate after 1 hr by TR-FRET assay

>  <published_relation>  (501) 
=

>  <standard_value>  (501) 
12

>  <qudt_units>  (501) 
http://www.openphacts.org/units/Nanomolar

>  <target_tax_id>  (501) 
9606

>  <bao_label>  (501) 
single protein format

>  <published_units>  (501) 
nM

>  <pchembl_value>  (501) 
7.92

>  <published_type>  (501) 
IC50

>  <activity_comment>  (501) 
None

$$$$

     RDKit          

 36 39  0  0  0  0  0  0  0  0999 V2000
    0.0000    0.0000    0.0000 C   0  0  0  0  0  0  0  0  0  0  0  0
    0.0000    0.0000    0.0000 N   0  0  0  0  0  0  0  0  0  0  0  0
    0.0000    0.0000    0.0000 C   0  0  0  0  0  0  0  0  0  0  0  0
    0.0000    0.0000    0.0000 C   0  0  0  0  0  0  0  0  0  0  0  0
    0.0000    0.0000    0.0000 N   0  0  0  0  0  0  0  0  0  0  0  0
    0.0000    0.0000    0.0000 C   0  0  0  0  0  0  0  0  0  0  0  0
    0.0000    0.0000    0.0000 C   0  0  0  0  0  0  0  0  0  0  0  0
    0.0000    0.0000    0.0000 C   0  0  0  0  0  0  0  0  0  0  0  0
    0.0000    0.0000    0.0000 C   0  0  0  0  0  0  0  0  0  0  0  0
    0.0000    0.0000    0.0000 C   0  0  0  0  0  0  0  0  0  0  0  0
    0.0000    0.0000    0.0000 N   0  0  0  0  0  0  0  0  0  0  0  0
    0.0000    0.0000    0.0000 C   0  0  0  0  0  0  0  0  0  0  0  0
    0.0000    0.0000    0.0000 O   0  0  0  0  0  0  0  0  0  0  0  0
    0.0000    0.0000    0.0000 C   0  0  0  0  0  0  0  0  0  0  0  0
    0.0000    0.0000    0.0000 C   0  0  0  0  0  0  0  0  0  0  0  0
    0.0000    0.0000    0.0000 C   0  0  0  0  0  0  0  0  0  0  0  0
    0.0000    0.0000    0.0000 C   0  0  0  0  0  0  0  0  0  0  0  0
    0.0000    0.0000    0.0000 C   0  0  0  0  0  0  0  0  0  0  0  0
    0.0000    0.0000    0.0000 C   0  0  0  0  0  0  0  0  0  0  0  0
    0.0000    0.0000    0.0000 C   0  0  0  0  0  0  0  0  0  0  0  0
    0.0000    0.0000    0.0000 C   0  0  0  0  0  0  0  0  0  0  0  0
    0.0000    0.0000    0.0000 C   0  0  0  0  0  0  0  0  0  0  0  0
    0.0000    0.0000    0.0000 C   0  0  0  0  0  0  0  0  0  0  0  0
    0.0000    0.0000    0.0000 C   0  0  0  0  0  0  0  0  0  0  0  0
    0.0000    0.0000    0.0000 N   0  0  0  0  0  0  0  0  0  0  0  0
    0.0000    0.0000    0.0000 C   0  0  0  0  0  0  0  0  0  0  0  0
    0.0000    0.0000    0.0000 N   0  0  0  0  0  0  0  0  0  0  0  0
    0.0000    0.0000    0.0000 S   0  0  0  0  0  0  0  0  0  0  0  0
    0.0000    0.0000    0.0000 C   0  0  0  0  0  0  0  0  0  0  0  0
    0.0000    0.0000    0.0000 C   0  0  0  0  0  0  0  0  0  0  0  0
    0.0000    0.0000    0.0000 C   0  0  0  0  0  0  0  0  0  0  0  0
    0.0000    0.0000    0.0000 F   0  0  0  0  0  0  0  0  0  0  0  0
    0.0000    0.0000    0.0000 F   0  0  0  0  0  0  0  0  0  0  0  0
    0.0000    0.0000    0.0000 F   0  0  0  0  0  0  0  0  0  0  0  0
    0.0000    0.0000    0.0000 C   0  0  0  0  0  0  0  0  0  0  0  0
    0.0000    0.0000    0.0000 C   0  0  0  0  0  0  0  0  0  0  0  0
  1  2  1  0
  2  3  1  0
  3  4  1  0
  4  5  1  0
  5  6  1  0
  6  7  1  0
  7  8  2  0
  8  9  1  0
  9 10  2  0
 10 11  1  0
 11 12  1  0
 12 13  2  0
 12 14  1  0
 14 15  2  0
 15 16  1  0
 16 17  2  0
 17 18  1  0
 17 19  1  0
 19 20  2  0
 19 21  1  0
 21 22  3  0
 22 23  1  0
 23 24  2  0
 24 25  1  0
 25 26  2  0
 26 27  1  0
 26 28  1  0
 10 29  1  0
 29 30  2  0
 30 31  1  0
 31 32  1  0
 31 33  1  0
 31 34  1  0
  5 35  1  0
 35 36  1  0
 36  2  1  0
 30  7  1  0
 20 14  1  0
 28 23  1  0
M  END
>  <pIC50>  (502) 
7.54

>  <ChEMBL_ID>  (502) 
CHEMBL1784640

>  <document_journal>  (502) 
Bioorg. Med. Chem. Lett.

>  <bao_endpoint>  (502) 
BAO_0000190

>  <potential_duplicate>  (502) 
False

>  <uo_units>  (502) 
UO_0000065

>  <canonical_smiles>  (502) 
CN1CCN(Cc2ccc(NC(=O)c3ccc(C)c(c3)C#Cc4cnc(N)s4)cc2C(F)(F)F)CC1

>  <parent_molecule_chembl_id>  (502) 
CHEMBL1784640

>  <assay_type>  (502) 
B

>  <src_id>  (502) 
1

>  <ligand_efficiency>  (502) 
{u'le': u'0.29', u'bei': u'14.68', u'sei': u'7.34', u'lle': u'2.82'}

>  <standard_flag>  (502) 
True

>  <molecule_chembl_id>  (502) 
CHEMBL1784640

>  <target_organism>  (502) 
Homo sapiens

>  <standard_units>  (502) 
nM

>  <record_id>  (502) 
1429604

>  <document_chembl_id>  (502) 
CHEMBL1781971

>  <bao_format>  (502) 
BAO_0000357

>  <data_validity_description>  (502) 
None

>  <activity_id>  (502) 
6219749

>  <standard_type>  (502) 
IC50

>  <target_chembl_id>  (502) 
CHEMBL1862

>  <data_validity_comment>  (502) 
None

>  <published_value>  (502) 
29

>  <document_year>  (502) 
2011

>  <target_pref_name>  (502) 
Tyrosine-protein kinase ABL

>  <assay_chembl_id>  (502) 
CHEMBL1787640

>  <standard_relation>  (502) 
=

>  <assay_description>  (502) 
Inhibition of wild type human ABL using [EAIYAAPFAKKK] peptide substrate after 1 hr by TR-FRET assay

>  <published_relation>  (502) 
=

>  <standard_value>  (502) 
29

>  <qudt_units>  (502) 
http://www.openphacts.org/units/Nanomolar

>  <target_tax_id>  (502) 
9606

>  <bao_label>  (502) 
single protein format

>  <published_units>  (502) 
nM

>  <pchembl_value>  (502) 
7.54

>  <published_type>  (502) 
IC50

>  <activity_comment>  (502) 
None

$$$$

     RDKit          

 42 45  0  0  0  0  0  0  0  0999 V2000
    0.0000    0.0000    0.0000 C   0  0  0  0  0  0  0  0  0  0  0  0
    0.0000    0.0000    0.0000 C   0  0  0  0  0  0  0  0  0  0  0  0
    0.0000    0.0000    0.0000 C   0  0  0  0  0  0  0  0  0  0  0  0
    0.0000    0.0000    0.0000 C   0  0  0  0  0  0  0  0  0  0  0  0
    0.0000    0.0000    0.0000 C   0  0  0  0  0  0  0  0  0  0  0  0
    0.0000    0.0000    0.0000 C   0  0  0  0  0  0  0  0  0  0  0  0
    0.0000    0.0000    0.0000 C   0  0  0  0  0  0  0  0  0  0  0  0
    0.0000    0.0000    0.0000 C   0  0  0  0  0  0  0  0  0  0  0  0
    0.0000    0.0000    0.0000 C   0  0  0  0  0  0  0  0  0  0  0  0
    0.0000    0.0000    0.0000 C   0  0  0  0  0  0  0  0  0  0  0  0
    0.0000    0.0000    0.0000 C   0  0  0  0  0  0  0  0  0  0  0  0
    0.0000    0.0000    0.0000 N   0  0  0  0  0  0  0  0  0  0  0  0
    0.0000    0.0000    0.0000 C   0  0  0  0  0  0  0  0  0  0  0  0
    0.0000    0.0000    0.0000 C   0  0  0  0  0  0  0  0  0  0  0  0
    0.0000    0.0000    0.0000 O   0  0  0  0  0  0  0  0  0  0  0  0
    0.0000    0.0000    0.0000 N   0  0  0  0  0  0  0  0  0  0  0  0
    0.0000    0.0000    0.0000 N   0  0  0  0  0  0  0  0  0  0  0  0
    0.0000    0.0000    0.0000 C   0  0  0  0  0  0  0  0  0  0  0  0
    0.0000    0.0000    0.0000 C   0  0  0  0  0  0  0  0  0  0  0  0
    0.0000    0.0000    0.0000 O   0  0  0  0  0  0  0  0  0  0  0  0
    0.0000    0.0000    0.0000 N   0  0  0  0  0  0  0  0  0  0  0  0
    0.0000    0.0000    0.0000 C   0  0  0  0  0  0  0  0  0  0  0  0
    0.0000    0.0000    0.0000 C   0  0  0  0  0  0  0  0  0  0  0  0
    0.0000    0.0000    0.0000 C   0  0  0  0  0  0  0  0  0  0  0  0
    0.0000    0.0000    0.0000 C   0  0  0  0  0  0  0  0  0  0  0  0
    0.0000    0.0000    0.0000 C   0  0  0  0  0  0  0  0  0  0  0  0
    0.0000    0.0000    0.0000 N   0  0  0  0  0  0  0  0  0  0  0  0
    0.0000    0.0000    0.0000 C   0  0  0  0  0  0  0  0  0  0  0  0
    0.0000    0.0000    0.0000 C   0  0  0  0  0  0  0  0  0  0  0  0
    0.0000    0.0000    0.0000 N   0  0  0  0  0  0  0  0  0  0  0  0
    0.0000    0.0000    0.0000 C   0  0  0  0  0  0  0  0  0  0  0  0
    0.0000    0.0000    0.0000 C   0  0  0  0  0  0  0  0  0  0  0  0
    0.0000    0.0000    0.0000 O   0  0  0  0  0  0  0  0  0  0  0  0
    0.0000    0.0000    0.0000 O   0  0  0  0  0  0  0  0  0  0  0  0
    0.0000    0.0000    0.0000 C   0  0  0  0  0  0  0  0  0  0  0  0
    0.0000    0.0000    0.0000 C   0  0  0  0  0  0  0  0  0  0  0  0
    0.0000    0.0000    0.0000 C   0  0  0  0  0  0  0  0  0  0  0  0
    0.0000    0.0000    0.0000 C   0  0  0  0  0  0  0  0  0  0  0  0
    0.0000    0.0000    0.0000 C   0  0  0  0  0  0  0  0  0  0  0  0
    0.0000    0.0000    0.0000 F   0  0  0  0  0  0  0  0  0  0  0  0
    0.0000    0.0000    0.0000 F   0  0  0  0  0  0  0  0  0  0  0  0
    0.0000    0.0000    0.0000 F   0  0  0  0  0  0  0  0  0  0  0  0
  1  2  1  0
  2  3  2  0
  3  4  1  0
  4  5  2  0
  5  6  1  0
  6  7  2  0
  7  8  1  0
  8  9  3  0
  9 10  1  0
 10 11  2  0
 11 12  1  0
 12 13  2  0
 13 14  1  0
 14 15  2  0
 14 16  1  0
 13 17  1  0
 17 18  1  0
  5 19  1  0
 19 20  2  0
 19 21  1  0
 21 22  1  0
 22 23  2  0
 23 24  1  0
 24 25  2  0
 25 26  1  0
 26 27  1  0
 27 28  1  0
 28 29  1  0
 29 30  1  0
 30 31  1  0
 31 32  1  0
 32 33  2  0
 32 34  1  0
 30 35  1  0
 35 36  1  0
 25 37  1  0
 37 38  2  0
 37 39  1  0
 39 40  1  0
 39 41  1  0
 39 42  1  0
  7  2  1  0
 17 10  1  0
 38 22  1  0
 36 27  1  0
M  END
>  <pIC50>  (503) 
8.37

>  <ChEMBL_ID>  (503) 
CHEMBL1784639

>  <document_journal>  (503) 
Bioorg. Med. Chem. Lett.

>  <bao_endpoint>  (503) 
BAO_0000190

>  <potential_duplicate>  (503) 
False

>  <uo_units>  (503) 
UO_0000065

>  <canonical_smiles>  (503) 
Cc1ccc(cc1C#Cc2cnc(C(=O)N)n2C)C(=O)Nc3ccc(CN4CCN(CC(=O)O)CC4)c(c3)C(F)(F)F

>  <parent_molecule_chembl_id>  (503) 
CHEMBL1784639

>  <assay_type>  (503) 
B

>  <src_id>  (503) 
1

>  <ligand_efficiency>  (503) 
{u'le': u'0.27', u'bei': u'14.36', u'sei': u'6.25', u'lle': u'7.95'}

>  <standard_flag>  (503) 
True

>  <molecule_chembl_id>  (503) 
CHEMBL1784639

>  <target_organism>  (503) 
Homo sapiens

>  <standard_units>  (503) 
nM

>  <record_id>  (503) 
1429603

>  <document_chembl_id>  (503) 
CHEMBL1781971

>  <bao_format>  (503) 
BAO_0000357

>  <data_validity_description>  (503) 
None

>  <activity_id>  (503) 
6219750

>  <standard_type>  (503) 
IC50

>  <target_chembl_id>  (503) 
CHEMBL1862

>  <data_validity_comment>  (503) 
None

>  <published_value>  (503) 
4.3

>  <document_year>  (503) 
2011

>  <target_pref_name>  (503) 
Tyrosine-protein kinase ABL

>  <assay_chembl_id>  (503) 
CHEMBL1787640

>  <standard_relation>  (503) 
=

>  <assay_description>  (503) 
Inhibition of wild type human ABL using [EAIYAAPFAKKK] peptide substrate after 1 hr by TR-FRET assay

>  <published_relation>  (503) 
=

>  <standard_value>  (503) 
4.3

>  <qudt_units>  (503) 
http://www.openphacts.org/units/Nanomolar

>  <target_tax_id>  (503) 
9606

>  <bao_label>  (503) 
single protein format

>  <published_units>  (503) 
nM

>  <pchembl_value>  (503) 
8.37

>  <published_type>  (503) 
IC50

>  <activity_comment>  (503) 
None

$$$$

     RDKit          

 42 45  0  0  0  0  0  0  0  0999 V2000
    0.0000    0.0000    0.0000 C   0  0  0  0  0  0  0  0  0  0  0  0
    0.0000    0.0000    0.0000 O   0  0  0  0  0  0  0  0  0  0  0  0
    0.0000    0.0000    0.0000 C   0  0  0  0  0  0  0  0  0  0  0  0
    0.0000    0.0000    0.0000 C   0  0  0  0  0  0  0  0  0  0  0  0
    0.0000    0.0000    0.0000 N   0  0  0  0  0  0  0  0  0  0  0  0
    0.0000    0.0000    0.0000 C   0  0  0  0  0  0  0  0  0  0  0  0
    0.0000    0.0000    0.0000 C   0  0  0  0  0  0  0  0  0  0  0  0
    0.0000    0.0000    0.0000 N   0  0  0  0  0  0  0  0  0  0  0  0
    0.0000    0.0000    0.0000 C   0  0  0  0  0  0  0  0  0  0  0  0
    0.0000    0.0000    0.0000 C   0  0  0  0  0  0  0  0  0  0  0  0
    0.0000    0.0000    0.0000 C   0  0  0  0  0  0  0  0  0  0  0  0
    0.0000    0.0000    0.0000 C   0  0  0  0  0  0  0  0  0  0  0  0
    0.0000    0.0000    0.0000 C   0  0  0  0  0  0  0  0  0  0  0  0
    0.0000    0.0000    0.0000 N   0  0  0  0  0  0  0  0  0  0  0  0
    0.0000    0.0000    0.0000 C   0  0  0  0  0  0  0  0  0  0  0  0
    0.0000    0.0000    0.0000 O   0  0  0  0  0  0  0  0  0  0  0  0
    0.0000    0.0000    0.0000 C   0  0  0  0  0  0  0  0  0  0  0  0
    0.0000    0.0000    0.0000 C   0  0  0  0  0  0  0  0  0  0  0  0
    0.0000    0.0000    0.0000 C   0  0  0  0  0  0  0  0  0  0  0  0
    0.0000    0.0000    0.0000 C   0  0  0  0  0  0  0  0  0  0  0  0
    0.0000    0.0000    0.0000 C   0  0  0  0  0  0  0  0  0  0  0  0
    0.0000    0.0000    0.0000 C   0  0  0  0  0  0  0  0  0  0  0  0
    0.0000    0.0000    0.0000 C   0  0  0  0  0  0  0  0  0  0  0  0
    0.0000    0.0000    0.0000 C   0  0  0  0  0  0  0  0  0  0  0  0
    0.0000    0.0000    0.0000 C   0  0  0  0  0  0  0  0  0  0  0  0
    0.0000    0.0000    0.0000 C   0  0  0  0  0  0  0  0  0  0  0  0
    0.0000    0.0000    0.0000 C   0  0  0  0  0  0  0  0  0  0  0  0
    0.0000    0.0000    0.0000 N   0  0  0  0  0  0  0  0  0  0  0  0
    0.0000    0.0000    0.0000 C   0  0  0  0  0  0  0  0  0  0  0  0
    0.0000    0.0000    0.0000 C   0  0  0  0  0  0  0  0  0  0  0  0
    0.0000    0.0000    0.0000 O   0  0  0  0  0  0  0  0  0  0  0  0
    0.0000    0.0000    0.0000 N   0  0  0  0  0  0  0  0  0  0  0  0
    0.0000    0.0000    0.0000 N   0  0  0  0  0  0  0  0  0  0  0  0
    0.0000    0.0000    0.0000 C   0  0  0  0  0  0  0  0  0  0  0  0
    0.0000    0.0000    0.0000 C   0  0  0  0  0  0  0  0  0  0  0  0
    0.0000    0.0000    0.0000 C   0  0  0  0  0  0  0  0  0  0  0  0
    0.0000    0.0000    0.0000 C   0  0  0  0  0  0  0  0  0  0  0  0
    0.0000    0.0000    0.0000 F   0  0  0  0  0  0  0  0  0  0  0  0
    0.0000    0.0000    0.0000 F   0  0  0  0  0  0  0  0  0  0  0  0
    0.0000    0.0000    0.0000 F   0  0  0  0  0  0  0  0  0  0  0  0
    0.0000    0.0000    0.0000 C   0  0  0  0  0  0  0  0  0  0  0  0
    0.0000    0.0000    0.0000 C   0  0  0  0  0  0  0  0  0  0  0  0
  1  2  1  0
  2  3  1  0
  3  4  1  0
  4  5  1  0
  5  6  1  0
  6  7  1  0
  7  8  1  0
  8  9  1  0
  9 10  1  0
 10 11  2  0
 11 12  1  0
 12 13  2  0
 13 14  1  0
 14 15  1  0
 15 16  2  0
 15 17  1  0
 17 18  2  0
 18 19  1  0
 19 20  2  0
 20 21  1  0
 20 22  1  0
 22 23  2  0
 22 24  1  0
 24 25  3  0
 25 26  1  0
 26 27  2  0
 27 28  1  0
 28 29  2  0
 29 30  1  0
 30 31  2  0
 30 32  1  0
 29 33  1  0
 33 34  1  0
 13 35  1  0
 35 36  2  0
 36 37  1  0
 37 38  1  0
 37 39  1  0
 37 40  1  0
  8 41  1  0
 41 42  1  0
 42  5  1  0
 36 10  1  0
 23 17  1  0
 33 26  1  0
M  END
>  <pIC50>  (504) 
8.32

>  <ChEMBL_ID>  (504) 
CHEMBL1784638

>  <document_journal>  (504) 
Bioorg. Med. Chem. Lett.

>  <bao_endpoint>  (504) 
BAO_0000190

>  <potential_duplicate>  (504) 
False

>  <uo_units>  (504) 
UO_0000065

>  <canonical_smiles>  (504) 
COCCN1CCN(Cc2ccc(NC(=O)c3ccc(C)c(c3)C#Cc4cnc(C(=O)N)n4C)cc2C(F)(F)F)CC1

>  <parent_molecule_chembl_id>  (504) 
CHEMBL1784638

>  <assay_type>  (504) 
B

>  <src_id>  (504) 
1

>  <ligand_efficiency>  (504) 
{u'le': u'0.27', u'bei': u'14.28', u'sei': u'7.87', u'lle': u'4.47'}

>  <standard_flag>  (504) 
True

>  <molecule_chembl_id>  (504) 
CHEMBL1784638

>  <target_organism>  (504) 
Homo sapiens

>  <standard_units>  (504) 
nM

>  <record_id>  (504) 
1429602

>  <document_chembl_id>  (504) 
CHEMBL1781971

>  <bao_format>  (504) 
BAO_0000357

>  <data_validity_description>  (504) 
None

>  <activity_id>  (504) 
6219751

>  <standard_type>  (504) 
IC50

>  <target_chembl_id>  (504) 
CHEMBL1862

>  <data_validity_comment>  (504) 
None

>  <published_value>  (504) 
4.8

>  <document_year>  (504) 
2011

>  <target_pref_name>  (504) 
Tyrosine-protein kinase ABL

>  <assay_chembl_id>  (504) 
CHEMBL1787640

>  <standard_relation>  (504) 
=

>  <assay_description>  (504) 
Inhibition of wild type human ABL using [EAIYAAPFAKKK] peptide substrate after 1 hr by TR-FRET assay

>  <published_relation>  (504) 
=

>  <standard_value>  (504) 
4.8

>  <qudt_units>  (504) 
http://www.openphacts.org/units/Nanomolar

>  <target_tax_id>  (504) 
9606

>  <bao_label>  (504) 
single protein format

>  <published_units>  (504) 
nM

>  <pchembl_value>  (504) 
8.32

>  <published_type>  (504) 
IC50

>  <activity_comment>  (504) 
None

$$$$

     RDKit          

 42 45  0  0  0  0  0  0  0  0999 V2000
    0.0000    0.0000    0.0000 C   0  0  0  0  0  0  0  0  0  0  0  0
    0.0000    0.0000    0.0000 N   0  0  0  0  0  0  0  0  0  0  0  0
    0.0000    0.0000    0.0000 C   0  0  0  0  0  0  0  0  0  0  0  0
    0.0000    0.0000    0.0000 O   0  0  0  0  0  0  0  0  0  0  0  0
    0.0000    0.0000    0.0000 C   0  0  0  0  0  0  0  0  0  0  0  0
    0.0000    0.0000    0.0000 N   0  0  0  0  0  0  0  0  0  0  0  0
    0.0000    0.0000    0.0000 C   0  0  0  0  0  0  0  0  0  0  0  0
    0.0000    0.0000    0.0000 C   0  0  0  0  0  0  0  0  0  0  0  0
    0.0000    0.0000    0.0000 C   0  0  0  0  0  0  0  0  0  0  0  0
    0.0000    0.0000    0.0000 C   0  0  0  0  0  0  0  0  0  0  0  0
    0.0000    0.0000    0.0000 C   0  0  0  0  0  0  0  0  0  0  0  0
    0.0000    0.0000    0.0000 C   0  0  0  0  0  0  0  0  0  0  0  0
    0.0000    0.0000    0.0000 C   0  0  0  0  0  0  0  0  0  0  0  0
    0.0000    0.0000    0.0000 C   0  0  0  0  0  0  0  0  0  0  0  0
    0.0000    0.0000    0.0000 C   0  0  0  0  0  0  0  0  0  0  0  0
    0.0000    0.0000    0.0000 C   0  0  0  0  0  0  0  0  0  0  0  0
    0.0000    0.0000    0.0000 C   0  0  0  0  0  0  0  0  0  0  0  0
    0.0000    0.0000    0.0000 C   0  0  0  0  0  0  0  0  0  0  0  0
    0.0000    0.0000    0.0000 O   0  0  0  0  0  0  0  0  0  0  0  0
    0.0000    0.0000    0.0000 N   0  0  0  0  0  0  0  0  0  0  0  0
    0.0000    0.0000    0.0000 C   0  0  0  0  0  0  0  0  0  0  0  0
    0.0000    0.0000    0.0000 C   0  0  0  0  0  0  0  0  0  0  0  0
    0.0000    0.0000    0.0000 C   0  0  0  0  0  0  0  0  0  0  0  0
    0.0000    0.0000    0.0000 C   0  0  0  0  0  0  0  0  0  0  0  0
    0.0000    0.0000    0.0000 C   0  0  0  0  0  0  0  0  0  0  0  0
    0.0000    0.0000    0.0000 N   0  0  0  0  0  0  0  0  0  0  0  0
    0.0000    0.0000    0.0000 C   0  0  0  0  0  0  0  0  0  0  0  0
    0.0000    0.0000    0.0000 C   0  0  0  0  0  0  0  0  0  0  0  0
    0.0000    0.0000    0.0000 N   0  0  0  0  0  0  0  0  0  0  0  0
    0.0000    0.0000    0.0000 C   0  0  0  0  0  0  0  0  0  0  0  0
    0.0000    0.0000    0.0000 C   0  0  0  0  0  0  0  0  0  0  0  0
    0.0000    0.0000    0.0000 O   0  0  0  0  0  0  0  0  0  0  0  0
    0.0000    0.0000    0.0000 C   0  0  0  0  0  0  0  0  0  0  0  0
    0.0000    0.0000    0.0000 C   0  0  0  0  0  0  0  0  0  0  0  0
    0.0000    0.0000    0.0000 C   0  0  0  0  0  0  0  0  0  0  0  0
    0.0000    0.0000    0.0000 C   0  0  0  0  0  0  0  0  0  0  0  0
    0.0000    0.0000    0.0000 C   0  0  0  0  0  0  0  0  0  0  0  0
    0.0000    0.0000    0.0000 F   0  0  0  0  0  0  0  0  0  0  0  0
    0.0000    0.0000    0.0000 F   0  0  0  0  0  0  0  0  0  0  0  0
    0.0000    0.0000    0.0000 F   0  0  0  0  0  0  0  0  0  0  0  0
    0.0000    0.0000    0.0000 N   0  0  0  0  0  0  0  0  0  0  0  0
    0.0000    0.0000    0.0000 C   0  0  0  0  0  0  0  0  0  0  0  0
  1  2  1  0
  2  3  1  0
  3  4  2  0
  3  5  1  0
  5  6  2  0
  6  7  1  0
  7  8  2  0
  8  9  1  0
  9 10  3  0
 10 11  1  0
 11 12  2  0
 12 13  1  0
 13 14  2  0
 14 15  1  0
 15 16  2  0
 16 17  1  0
 13 18  1  0
 18 19  2  0
 18 20  1  0
 20 21  1  0
 21 22  2  0
 22 23  1  0
 23 24  2  0
 24 25  1  0
 25 26  1  0
 26 27  1  0
 27 28  1  0
 28 29  1  0
 29 30  1  0
 30 31  1  0
 31 32  1  0
 29 33  1  0
 33 34  1  0
 24 35  1  0
 35 36  2  0
 35 37  1  0
 37 38  1  0
 37 39  1  0
 37 40  1  0
  8 41  1  0
 41 42  1  0
 41  5  1  0
 16 11  1  0
 36 21  1  0
 34 26  1  0
M  END
>  <pIC50>  (505) 
8.73

>  <ChEMBL_ID>  (505) 
CHEMBL1784637

>  <document_journal>  (505) 
Bioorg. Med. Chem. Lett.

>  <bao_endpoint>  (505) 
BAO_0000190

>  <potential_duplicate>  (505) 
False

>  <uo_units>  (505) 
UO_0000065

>  <canonical_smiles>  (505) 
CNC(=O)c1ncc(C#Cc2cc(ccc2C)C(=O)Nc3ccc(CN4CCN(CCO)CC4)c(c3)C(F)(F)F)n1C

>  <parent_molecule_chembl_id>  (505) 
CHEMBL1784637

>  <assay_type>  (505) 
B

>  <src_id>  (505) 
1

>  <ligand_efficiency>  (505) 
{u'le': u'0.25', u'bei': u'13.33', u'sei': u'7.56', u'lle': u'4.12'}

>  <standard_flag>  (505) 
True

>  <molecule_chembl_id>  (505) 
CHEMBL1784637

>  <target_organism>  (505) 
Homo sapiens

>  <standard_units>  (505) 
nM

>  <record_id>  (505) 
1429601

>  <document_chembl_id>  (505) 
CHEMBL1781971

>  <bao_format>  (505) 
BAO_0000357

>  <data_validity_description>  (505) 
None

>  <activity_id>  (505) 
6219752

>  <standard_type>  (505) 
IC50

>  <target_chembl_id>  (505) 
CHEMBL1862

>  <data_validity_comment>  (505) 
None

>  <published_value>  (505) 
17.2

>  <document_year>  (505) 
2011

>  <target_pref_name>  (505) 
Tyrosine-protein kinase ABL

>  <assay_chembl_id>  (505) 
CHEMBL1787640

>  <standard_relation>  (505) 
=

>  <assay_description>  (505) 
Inhibition of wild type human ABL using [EAIYAAPFAKKK] peptide substrate after 1 hr by TR-FRET assay

>  <published_relation>  (505) 
=

>  <standard_value>  (505) 
17.2

>  <qudt_units>  (505) 
http://www.openphacts.org/units/Nanomolar

>  <target_tax_id>  (505) 
9606

>  <bao_label>  (505) 
single protein format

>  <published_units>  (505) 
nM

>  <pchembl_value>  (505) 
7.76

>  <published_type>  (505) 
IC50

>  <activity_comment>  (505) 
None

$$$$

     RDKit          

 41 44  0  0  0  0  0  0  0  0999 V2000
    0.0000    0.0000    0.0000 C   0  0  0  0  0  0  0  0  0  0  0  0
    0.0000    0.0000    0.0000 C   0  0  0  0  0  0  0  0  0  0  0  0
    0.0000    0.0000    0.0000 C   0  0  0  0  0  0  0  0  0  0  0  0
    0.0000    0.0000    0.0000 C   0  0  0  0  0  0  0  0  0  0  0  0
    0.0000    0.0000    0.0000 C   0  0  0  0  0  0  0  0  0  0  0  0
    0.0000    0.0000    0.0000 C   0  0  0  0  0  0  0  0  0  0  0  0
    0.0000    0.0000    0.0000 C   0  0  0  0  0  0  0  0  0  0  0  0
    0.0000    0.0000    0.0000 C   0  0  0  0  0  0  0  0  0  0  0  0
    0.0000    0.0000    0.0000 C   0  0  0  0  0  0  0  0  0  0  0  0
    0.0000    0.0000    0.0000 C   0  0  0  0  0  0  0  0  0  0  0  0
    0.0000    0.0000    0.0000 C   0  0  0  0  0  0  0  0  0  0  0  0
    0.0000    0.0000    0.0000 N   0  0  0  0  0  0  0  0  0  0  0  0
    0.0000    0.0000    0.0000 C   0  0  0  0  0  0  0  0  0  0  0  0
    0.0000    0.0000    0.0000 C   0  0  0  0  0  0  0  0  0  0  0  0
    0.0000    0.0000    0.0000 O   0  0  0  0  0  0  0  0  0  0  0  0
    0.0000    0.0000    0.0000 N   0  0  0  0  0  0  0  0  0  0  0  0
    0.0000    0.0000    0.0000 N   0  0  0  0  0  0  0  0  0  0  0  0
    0.0000    0.0000    0.0000 C   0  0  0  0  0  0  0  0  0  0  0  0
    0.0000    0.0000    0.0000 C   0  0  0  0  0  0  0  0  0  0  0  0
    0.0000    0.0000    0.0000 O   0  0  0  0  0  0  0  0  0  0  0  0
    0.0000    0.0000    0.0000 N   0  0  0  0  0  0  0  0  0  0  0  0
    0.0000    0.0000    0.0000 C   0  0  0  0  0  0  0  0  0  0  0  0
    0.0000    0.0000    0.0000 C   0  0  0  0  0  0  0  0  0  0  0  0
    0.0000    0.0000    0.0000 C   0  0  0  0  0  0  0  0  0  0  0  0
    0.0000    0.0000    0.0000 C   0  0  0  0  0  0  0  0  0  0  0  0
    0.0000    0.0000    0.0000 C   0  0  0  0  0  0  0  0  0  0  0  0
    0.0000    0.0000    0.0000 N   0  0  0  0  0  0  0  0  0  0  0  0
    0.0000    0.0000    0.0000 C   0  0  0  0  0  0  0  0  0  0  0  0
    0.0000    0.0000    0.0000 C   0  0  0  0  0  0  0  0  0  0  0  0
    0.0000    0.0000    0.0000 N   0  0  0  0  0  0  0  0  0  0  0  0
    0.0000    0.0000    0.0000 C   0  0  0  0  0  0  0  0  0  0  0  0
    0.0000    0.0000    0.0000 C   0  0  0  0  0  0  0  0  0  0  0  0
    0.0000    0.0000    0.0000 O   0  0  0  0  0  0  0  0  0  0  0  0
    0.0000    0.0000    0.0000 C   0  0  0  0  0  0  0  0  0  0  0  0
    0.0000    0.0000    0.0000 C   0  0  0  0  0  0  0  0  0  0  0  0
    0.0000    0.0000    0.0000 C   0  0  0  0  0  0  0  0  0  0  0  0
    0.0000    0.0000    0.0000 C   0  0  0  0  0  0  0  0  0  0  0  0
    0.0000    0.0000    0.0000 C   0  0  0  0  0  0  0  0  0  0  0  0
    0.0000    0.0000    0.0000 F   0  0  0  0  0  0  0  0  0  0  0  0
    0.0000    0.0000    0.0000 F   0  0  0  0  0  0  0  0  0  0  0  0
    0.0000    0.0000    0.0000 F   0  0  0  0  0  0  0  0  0  0  0  0
  1  2  1  0
  2  3  2  0
  3  4  1  0
  4  5  2  0
  5  6  1  0
  6  7  2  0
  7  8  1  0
  8  9  3  0
  9 10  1  0
 10 11  2  0
 11 12  1  0
 12 13  2  0
 13 14  1  0
 14 15  2  0
 14 16  1  0
 13 17  1  0
 17 18  1  0
  5 19  1  0
 19 20  2  0
 19 21  1  0
 21 22  1  0
 22 23  2  0
 23 24  1  0
 24 25  2  0
 25 26  1  0
 26 27  1  0
 27 28  1  0
 28 29  1  0
 29 30  1  0
 30 31  1  0
 31 32  1  0
 32 33  1  0
 30 34  1  0
 34 35  1  0
 25 36  1  0
 36 37  2  0
 36 38  1  0
 38 39  1  0
 38 40  1  0
 38 41  1  0
  7  2  1  0
 17 10  1  0
 37 22  1  0
 35 27  1  0
M  END
>  <pIC50>  (506) 
8.44

>  <ChEMBL_ID>  (506) 
CHEMBL1236871

>  <document_journal>  (506) 
Bioorg. Med. Chem. Lett.

>  <bao_endpoint>  (506) 
BAO_0000190

>  <potential_duplicate>  (506) 
False

>  <uo_units>  (506) 
UO_0000065

>  <canonical_smiles>  (506) 
Cc1ccc(cc1C#Cc2cnc(C(=O)N)n2C)C(=O)Nc3ccc(CN4CCN(CCO)CC4)c(c3)C(F)(F)F

>  <parent_molecule_chembl_id>  (506) 
CHEMBL1236871

>  <assay_type>  (506) 
B

>  <src_id>  (506) 
1

>  <ligand_efficiency>  (506) 
{u'le': u'0.28', u'bei': u'14.85', u'sei': u'7.23', u'lle': u'5'}

>  <standard_flag>  (506) 
True

>  <molecule_chembl_id>  (506) 
CHEMBL1236871

>  <target_organism>  (506) 
Homo sapiens

>  <standard_units>  (506) 
nM

>  <record_id>  (506) 
1429600

>  <document_chembl_id>  (506) 
CHEMBL1781971

>  <bao_format>  (506) 
BAO_0000357

>  <data_validity_description>  (506) 
None

>  <activity_id>  (506) 
6219753

>  <standard_type>  (506) 
IC50

>  <target_chembl_id>  (506) 
CHEMBL1862

>  <data_validity_comment>  (506) 
None

>  <published_value>  (506) 
3.6

>  <document_year>  (506) 
2011

>  <target_pref_name>  (506) 
Tyrosine-protein kinase ABL

>  <assay_chembl_id>  (506) 
CHEMBL1787640

>  <standard_relation>  (506) 
=

>  <assay_description>  (506) 
Inhibition of wild type human ABL using [EAIYAAPFAKKK] peptide substrate after 1 hr by TR-FRET assay

>  <published_relation>  (506) 
=

>  <standard_value>  (506) 
3.6

>  <qudt_units>  (506) 
http://www.openphacts.org/units/Nanomolar

>  <target_tax_id>  (506) 
9606

>  <bao_label>  (506) 
single protein format

>  <published_units>  (506) 
nM

>  <pchembl_value>  (506) 
8.44

>  <published_type>  (506) 
IC50

>  <activity_comment>  (506) 
None

$$$$

     RDKit          

 42 45  0  0  0  0  0  0  0  0999 V2000
    0.0000    0.0000    0.0000 C   0  0  0  0  0  0  0  0  0  0  0  0
    0.0000    0.0000    0.0000 N   0  0  0  0  0  0  0  0  0  0  0  0
    0.0000    0.0000    0.0000 C   0  0  0  0  0  0  0  0  0  0  0  0
    0.0000    0.0000    0.0000 C   0  0  0  0  0  0  0  0  0  0  0  0
    0.0000    0.0000    0.0000 N   0  0  0  0  0  0  0  0  0  0  0  0
    0.0000    0.0000    0.0000 C   0  0  0  0  0  0  0  0  0  0  0  0
    0.0000    0.0000    0.0000 C   0  0  0  0  0  0  0  0  0  0  0  0
    0.0000    0.0000    0.0000 C   0  0  0  0  0  0  0  0  0  0  0  0
    0.0000    0.0000    0.0000 C   0  0  0  0  0  0  0  0  0  0  0  0
    0.0000    0.0000    0.0000 C   0  0  0  0  0  0  0  0  0  0  0  0
    0.0000    0.0000    0.0000 N   0  0  0  0  0  0  0  0  0  0  0  0
    0.0000    0.0000    0.0000 C   0  0  0  0  0  0  0  0  0  0  0  0
    0.0000    0.0000    0.0000 O   0  0  0  0  0  0  0  0  0  0  0  0
    0.0000    0.0000    0.0000 C   0  0  0  0  0  0  0  0  0  0  0  0
    0.0000    0.0000    0.0000 C   0  0  0  0  0  0  0  0  0  0  0  0
    0.0000    0.0000    0.0000 C   0  0  0  0  0  0  0  0  0  0  0  0
    0.0000    0.0000    0.0000 C   0  0  0  0  0  0  0  0  0  0  0  0
    0.0000    0.0000    0.0000 C   0  0  0  0  0  0  0  0  0  0  0  0
    0.0000    0.0000    0.0000 C   0  0  0  0  0  0  0  0  0  0  0  0
    0.0000    0.0000    0.0000 C   0  0  0  0  0  0  0  0  0  0  0  0
    0.0000    0.0000    0.0000 C   0  0  0  0  0  0  0  0  0  0  0  0
    0.0000    0.0000    0.0000 C   0  0  0  0  0  0  0  0  0  0  0  0
    0.0000    0.0000    0.0000 C   0  0  0  0  0  0  0  0  0  0  0  0
    0.0000    0.0000    0.0000 C   0  0  0  0  0  0  0  0  0  0  0  0
    0.0000    0.0000    0.0000 N   0  0  0  0  0  0  0  0  0  0  0  0
    0.0000    0.0000    0.0000 C   0  0  0  0  0  0  0  0  0  0  0  0
    0.0000    0.0000    0.0000 C   0  0  0  0  0  0  0  0  0  0  0  0
    0.0000    0.0000    0.0000 O   0  0  0  0  0  0  0  0  0  0  0  0
    0.0000    0.0000    0.0000 N   0  0  0  0  0  0  0  0  0  0  0  0
    0.0000    0.0000    0.0000 C   0  0  0  0  0  0  0  0  0  0  0  0
    0.0000    0.0000    0.0000 C   0  0  0  0  0  0  0  0  0  0  0  0
    0.0000    0.0000    0.0000 O   0  0  0  0  0  0  0  0  0  0  0  0
    0.0000    0.0000    0.0000 N   0  0  0  0  0  0  0  0  0  0  0  0
    0.0000    0.0000    0.0000 C   0  0  0  0  0  0  0  0  0  0  0  0
    0.0000    0.0000    0.0000 C   0  0  0  0  0  0  0  0  0  0  0  0
    0.0000    0.0000    0.0000 C   0  0  0  0  0  0  0  0  0  0  0  0
    0.0000    0.0000    0.0000 C   0  0  0  0  0  0  0  0  0  0  0  0
    0.0000    0.0000    0.0000 F   0  0  0  0  0  0  0  0  0  0  0  0
    0.0000    0.0000    0.0000 F   0  0  0  0  0  0  0  0  0  0  0  0
    0.0000    0.0000    0.0000 F   0  0  0  0  0  0  0  0  0  0  0  0
    0.0000    0.0000    0.0000 C   0  0  0  0  0  0  0  0  0  0  0  0
    0.0000    0.0000    0.0000 C   0  0  0  0  0  0  0  0  0  0  0  0
  1  2  1  0
  2  3  1  0
  3  4  1  0
  4  5  1  0
  5  6  1  0
  6  7  1  0
  7  8  2  0
  8  9  1  0
  9 10  2  0
 10 11  1  0
 11 12  1  0
 12 13  2  0
 12 14  1  0
 14 15  2  0
 15 16  1  0
 16 17  2  0
 17 18  1  0
 17 19  1  0
 19 20  2  0
 19 21  1  0
 21 22  3  0
 22 23  1  0
 23 24  2  0
 24 25  1  0
 25 26  2  0
 26 27  1  0
 27 28  2  0
 27 29  1  0
 29 30  1  0
 30 31  1  0
 31 32  1  0
 26 33  1  0
 33 34  1  0
 10 35  1  0
 35 36  2  0
 36 37  1  0
 37 38  1  0
 37 39  1  0
 37 40  1  0
  5 41  1  0
 41 42  1  0
 42  2  1  0
 36  7  1  0
 20 14  1  0
 33 23  1  0
M  END
>  <pIC50>  (507) 
7.26

>  <ChEMBL_ID>  (507) 
CHEMBL1784636

>  <document_journal>  (507) 
Bioorg. Med. Chem. Lett.

>  <bao_endpoint>  (507) 
BAO_0000190

>  <potential_duplicate>  (507) 
False

>  <uo_units>  (507) 
UO_0000065

>  <canonical_smiles>  (507) 
CN1CCN(Cc2ccc(NC(=O)c3ccc(C)c(c3)C#Cc4cnc(C(=O)NCCO)n4C)cc2C(F)(F)F)CC1

>  <parent_molecule_chembl_id>  (507) 
CHEMBL1784636

>  <assay_type>  (507) 
B

>  <src_id>  (507) 
1

>  <ligand_efficiency>  (507) 
{u'le': u'0.24', u'bei': u'12.46', u'sei': u'7.07', u'lle': u'3.62'}

>  <standard_flag>  (507) 
True

>  <molecule_chembl_id>  (507) 
CHEMBL1784636

>  <target_organism>  (507) 
Homo sapiens

>  <standard_units>  (507) 
nM

>  <record_id>  (507) 
1429599

>  <document_chembl_id>  (507) 
CHEMBL1781971

>  <bao_format>  (507) 
BAO_0000357

>  <data_validity_description>  (507) 
None

>  <activity_id>  (507) 
6219754

>  <standard_type>  (507) 
IC50

>  <target_chembl_id>  (507) 
CHEMBL1862

>  <data_validity_comment>  (507) 
None

>  <published_value>  (507) 
55

>  <document_year>  (507) 
2011

>  <target_pref_name>  (507) 
Tyrosine-protein kinase ABL

>  <assay_chembl_id>  (507) 
CHEMBL1787640

>  <standard_relation>  (507) 
=

>  <assay_description>  (507) 
Inhibition of wild type human ABL using [EAIYAAPFAKKK] peptide substrate after 1 hr by TR-FRET assay

>  <published_relation>  (507) 
=

>  <standard_value>  (507) 
55

>  <qudt_units>  (507) 
http://www.openphacts.org/units/Nanomolar

>  <target_tax_id>  (507) 
9606

>  <bao_label>  (507) 
single protein format

>  <published_units>  (507) 
nM

>  <pchembl_value>  (507) 
7.26

>  <published_type>  (507) 
IC50

>  <activity_comment>  (507) 
None

$$$$

     RDKit          

 40 43  0  0  0  0  0  0  0  0999 V2000
    0.0000    0.0000    0.0000 C   0  0  0  0  0  0  0  0  0  0  0  0
    0.0000    0.0000    0.0000 N   0  0  0  0  0  0  0  0  0  0  0  0
    0.0000    0.0000    0.0000 C   0  0  0  0  0  0  0  0  0  0  0  0
    0.0000    0.0000    0.0000 O   0  0  0  0  0  0  0  0  0  0  0  0
    0.0000    0.0000    0.0000 C   0  0  0  0  0  0  0  0  0  0  0  0
    0.0000    0.0000    0.0000 N   0  0  0  0  0  0  0  0  0  0  0  0
    0.0000    0.0000    0.0000 C   0  0  0  0  0  0  0  0  0  0  0  0
    0.0000    0.0000    0.0000 C   0  0  0  0  0  0  0  0  0  0  0  0
    0.0000    0.0000    0.0000 C   0  0  0  0  0  0  0  0  0  0  0  0
    0.0000    0.0000    0.0000 C   0  0  0  0  0  0  0  0  0  0  0  0
    0.0000    0.0000    0.0000 C   0  0  0  0  0  0  0  0  0  0  0  0
    0.0000    0.0000    0.0000 C   0  0  0  0  0  0  0  0  0  0  0  0
    0.0000    0.0000    0.0000 C   0  0  0  0  0  0  0  0  0  0  0  0
    0.0000    0.0000    0.0000 C   0  0  0  0  0  0  0  0  0  0  0  0
    0.0000    0.0000    0.0000 C   0  0  0  0  0  0  0  0  0  0  0  0
    0.0000    0.0000    0.0000 C   0  0  0  0  0  0  0  0  0  0  0  0
    0.0000    0.0000    0.0000 C   0  0  0  0  0  0  0  0  0  0  0  0
    0.0000    0.0000    0.0000 C   0  0  0  0  0  0  0  0  0  0  0  0
    0.0000    0.0000    0.0000 O   0  0  0  0  0  0  0  0  0  0  0  0
    0.0000    0.0000    0.0000 N   0  0  0  0  0  0  0  0  0  0  0  0
    0.0000    0.0000    0.0000 C   0  0  0  0  0  0  0  0  0  0  0  0
    0.0000    0.0000    0.0000 C   0  0  0  0  0  0  0  0  0  0  0  0
    0.0000    0.0000    0.0000 C   0  0  0  0  0  0  0  0  0  0  0  0
    0.0000    0.0000    0.0000 C   0  0  0  0  0  0  0  0  0  0  0  0
    0.0000    0.0000    0.0000 C   0  0  0  0  0  0  0  0  0  0  0  0
    0.0000    0.0000    0.0000 N   0  0  0  0  0  0  0  0  0  0  0  0
    0.0000    0.0000    0.0000 C   0  0  0  0  0  0  0  0  0  0  0  0
    0.0000    0.0000    0.0000 C   0  0  0  0  0  0  0  0  0  0  0  0
    0.0000    0.0000    0.0000 N   0  0  0  0  0  0  0  0  0  0  0  0
    0.0000    0.0000    0.0000 C   0  0  0  0  0  0  0  0  0  0  0  0
    0.0000    0.0000    0.0000 C   0  0  0  0  0  0  0  0  0  0  0  0
    0.0000    0.0000    0.0000 C   0  0  0  0  0  0  0  0  0  0  0  0
    0.0000    0.0000    0.0000 C   0  0  0  0  0  0  0  0  0  0  0  0
    0.0000    0.0000    0.0000 C   0  0  0  0  0  0  0  0  0  0  0  0
    0.0000    0.0000    0.0000 C   0  0  0  0  0  0  0  0  0  0  0  0
    0.0000    0.0000    0.0000 F   0  0  0  0  0  0  0  0  0  0  0  0
    0.0000    0.0000    0.0000 F   0  0  0  0  0  0  0  0  0  0  0  0
    0.0000    0.0000    0.0000 F   0  0  0  0  0  0  0  0  0  0  0  0
    0.0000    0.0000    0.0000 N   0  0  0  0  0  0  0  0  0  0  0  0
    0.0000    0.0000    0.0000 C   0  0  0  0  0  0  0  0  0  0  0  0
  1  2  1  0
  2  3  1  0
  3  4  2  0
  3  5  1  0
  5  6  2  0
  6  7  1  0
  7  8  2  0
  8  9  1  0
  9 10  3  0
 10 11  1  0
 11 12  2  0
 12 13  1  0
 13 14  2  0
 14 15  1  0
 15 16  2  0
 16 17  1  0
 13 18  1  0
 18 19  2  0
 18 20  1  0
 20 21  1  0
 21 22  2  0
 22 23  1  0
 23 24  2  0
 24 25  1  0
 25 26  1  0
 26 27  1  0
 27 28  1  0
 28 29  1  0
 29 30  1  0
 29 31  1  0
 31 32  1  0
 24 33  1  0
 33 34  2  0
 33 35  1  0
 35 36  1  0
 35 37  1  0
 35 38  1  0
  8 39  1  0
 39 40  1  0
 39  5  1  0
 16 11  1  0
 34 21  1  0
 32 26  1  0
M  END
>  <pIC50>  (508) 
7.76

>  <ChEMBL_ID>  (508) 
CHEMBL1784635

>  <document_journal>  (508) 
Bioorg. Med. Chem. Lett.

>  <bao_endpoint>  (508) 
BAO_0000190

>  <potential_duplicate>  (508) 
False

>  <uo_units>  (508) 
UO_0000065

>  <canonical_smiles>  (508) 
CNC(=O)c1ncc(C#Cc2cc(ccc2C)C(=O)Nc3ccc(CN4CCN(C)CC4)c(c3)C(F)(F)F)n1C

>  <parent_molecule_chembl_id>  (508) 
CHEMBL1784635

>  <assay_type>  (508) 
B

>  <src_id>  (508) 
1

>  <ligand_efficiency>  (508) 
{u'le': u'0.26', u'bei': u'14.04', u'sei': u'9.41', u'lle': u'3.58'}

>  <standard_flag>  (508) 
True

>  <molecule_chembl_id>  (508) 
CHEMBL1784635

>  <target_organism>  (508) 
Homo sapiens

>  <standard_units>  (508) 
nM

>  <record_id>  (508) 
1429598

>  <document_chembl_id>  (508) 
CHEMBL1781971

>  <bao_format>  (508) 
BAO_0000357

>  <data_validity_description>  (508) 
None

>  <activity_id>  (508) 
6219755

>  <standard_type>  (508) 
IC50

>  <target_chembl_id>  (508) 
CHEMBL1862

>  <data_validity_comment>  (508) 
None

>  <published_value>  (508) 
17.4

>  <document_year>  (508) 
2011

>  <target_pref_name>  (508) 
Tyrosine-protein kinase ABL

>  <assay_chembl_id>  (508) 
CHEMBL1787640

>  <standard_relation>  (508) 
=

>  <assay_description>  (508) 
Inhibition of wild type human ABL using [EAIYAAPFAKKK] peptide substrate after 1 hr by TR-FRET assay

>  <published_relation>  (508) 
=

>  <standard_value>  (508) 
17.4

>  <qudt_units>  (508) 
http://www.openphacts.org/units/Nanomolar

>  <target_tax_id>  (508) 
9606

>  <bao_label>  (508) 
single protein format

>  <published_units>  (508) 
nM

>  <pchembl_value>  (508) 
7.76

>  <published_type>  (508) 
IC50

>  <activity_comment>  (508) 
None

$$$$

     RDKit          

 39 42  0  0  0  0  0  0  0  0999 V2000
    0.0000    0.0000    0.0000 C   0  0  0  0  0  0  0  0  0  0  0  0
    0.0000    0.0000    0.0000 N   0  0  0  0  0  0  0  0  0  0  0  0
    0.0000    0.0000    0.0000 C   0  0  0  0  0  0  0  0  0  0  0  0
    0.0000    0.0000    0.0000 C   0  0  0  0  0  0  0  0  0  0  0  0
    0.0000    0.0000    0.0000 N   0  0  0  0  0  0  0  0  0  0  0  0
    0.0000    0.0000    0.0000 C   0  0  0  0  0  0  0  0  0  0  0  0
    0.0000    0.0000    0.0000 C   0  0  0  0  0  0  0  0  0  0  0  0
    0.0000    0.0000    0.0000 C   0  0  0  0  0  0  0  0  0  0  0  0
    0.0000    0.0000    0.0000 C   0  0  0  0  0  0  0  0  0  0  0  0
    0.0000    0.0000    0.0000 C   0  0  0  0  0  0  0  0  0  0  0  0
    0.0000    0.0000    0.0000 N   0  0  0  0  0  0  0  0  0  0  0  0
    0.0000    0.0000    0.0000 C   0  0  0  0  0  0  0  0  0  0  0  0
    0.0000    0.0000    0.0000 O   0  0  0  0  0  0  0  0  0  0  0  0
    0.0000    0.0000    0.0000 C   0  0  0  0  0  0  0  0  0  0  0  0
    0.0000    0.0000    0.0000 C   0  0  0  0  0  0  0  0  0  0  0  0
    0.0000    0.0000    0.0000 C   0  0  0  0  0  0  0  0  0  0  0  0
    0.0000    0.0000    0.0000 C   0  0  0  0  0  0  0  0  0  0  0  0
    0.0000    0.0000    0.0000 C   0  0  0  0  0  0  0  0  0  0  0  0
    0.0000    0.0000    0.0000 C   0  0  0  0  0  0  0  0  0  0  0  0
    0.0000    0.0000    0.0000 C   0  0  0  0  0  0  0  0  0  0  0  0
    0.0000    0.0000    0.0000 C   0  0  0  0  0  0  0  0  0  0  0  0
    0.0000    0.0000    0.0000 C   0  0  0  0  0  0  0  0  0  0  0  0
    0.0000    0.0000    0.0000 C   0  0  0  0  0  0  0  0  0  0  0  0
    0.0000    0.0000    0.0000 C   0  0  0  0  0  0  0  0  0  0  0  0
    0.0000    0.0000    0.0000 N   0  0  0  0  0  0  0  0  0  0  0  0
    0.0000    0.0000    0.0000 C   0  0  0  0  0  0  0  0  0  0  0  0
    0.0000    0.0000    0.0000 C   0  0  0  0  0  0  0  0  0  0  0  0
    0.0000    0.0000    0.0000 O   0  0  0  0  0  0  0  0  0  0  0  0
    0.0000    0.0000    0.0000 N   0  0  0  0  0  0  0  0  0  0  0  0
    0.0000    0.0000    0.0000 N   0  0  0  0  0  0  0  0  0  0  0  0
    0.0000    0.0000    0.0000 C   0  0  0  0  0  0  0  0  0  0  0  0
    0.0000    0.0000    0.0000 C   0  0  0  0  0  0  0  0  0  0  0  0
    0.0000    0.0000    0.0000 C   0  0  0  0  0  0  0  0  0  0  0  0
    0.0000    0.0000    0.0000 C   0  0  0  0  0  0  0  0  0  0  0  0
    0.0000    0.0000    0.0000 F   0  0  0  0  0  0  0  0  0  0  0  0
    0.0000    0.0000    0.0000 F   0  0  0  0  0  0  0  0  0  0  0  0
    0.0000    0.0000    0.0000 F   0  0  0  0  0  0  0  0  0  0  0  0
    0.0000    0.0000    0.0000 C   0  0  0  0  0  0  0  0  0  0  0  0
    0.0000    0.0000    0.0000 C   0  0  0  0  0  0  0  0  0  0  0  0
  1  2  1  0
  2  3  1  0
  3  4  1  0
  4  5  1  0
  5  6  1  0
  6  7  1  0
  7  8  2  0
  8  9  1  0
  9 10  2  0
 10 11  1  0
 11 12  1  0
 12 13  2  0
 12 14  1  0
 14 15  2  0
 15 16  1  0
 16 17  2  0
 17 18  1  0
 17 19  1  0
 19 20  2  0
 19 21  1  0
 21 22  3  0
 22 23  1  0
 23 24  2  0
 24 25  1  0
 25 26  2  0
 26 27  1  0
 27 28  2  0
 27 29  1  0
 26 30  1  0
 30 31  1  0
 10 32  1  0
 32 33  2  0
 33 34  1  0
 34 35  1  0
 34 36  1  0
 34 37  1  0
  5 38  1  0
 38 39  1  0
 39  2  1  0
 33  7  1  0
 20 14  1  0
 30 23  1  0
M  END
>  <pIC50>  (509) 
8.44

>  <ChEMBL_ID>  (509) 
CHEMBL1784634

>  <document_journal>  (509) 
Bioorg. Med. Chem. Lett.

>  <bao_endpoint>  (509) 
BAO_0000190

>  <potential_duplicate>  (509) 
False

>  <uo_units>  (509) 
UO_0000065

>  <canonical_smiles>  (509) 
CN1CCN(Cc2ccc(NC(=O)c3ccc(C)c(c3)C#Cc4cnc(C(=O)N)n4C)cc2C(F)(F)F)CC1

>  <parent_molecule_chembl_id>  (509) 
CHEMBL1784634

>  <assay_type>  (509) 
B

>  <src_id>  (509) 
1

>  <ligand_efficiency>  (509) 
{u'le': u'0.3', u'bei': u'15.68', u'sei': u'8.75', u'lle': u'4.46'}

>  <standard_flag>  (509) 
True

>  <molecule_chembl_id>  (509) 
CHEMBL1784634

>  <target_organism>  (509) 
Homo sapiens

>  <standard_units>  (509) 
nM

>  <record_id>  (509) 
1429597

>  <document_chembl_id>  (509) 
CHEMBL1781971

>  <bao_format>  (509) 
BAO_0000357

>  <data_validity_description>  (509) 
None

>  <activity_id>  (509) 
6219756

>  <standard_type>  (509) 
IC50

>  <target_chembl_id>  (509) 
CHEMBL1862

>  <data_validity_comment>  (509) 
None

>  <published_value>  (509) 
3.6

>  <document_year>  (509) 
2011

>  <target_pref_name>  (509) 
Tyrosine-protein kinase ABL

>  <assay_chembl_id>  (509) 
CHEMBL1787640

>  <standard_relation>  (509) 
=

>  <assay_description>  (509) 
Inhibition of wild type human ABL using [EAIYAAPFAKKK] peptide substrate after 1 hr by TR-FRET assay

>  <published_relation>  (509) 
=

>  <standard_value>  (509) 
3.6

>  <qudt_units>  (509) 
http://www.openphacts.org/units/Nanomolar

>  <target_tax_id>  (509) 
9606

>  <bao_label>  (509) 
single protein format

>  <published_units>  (509) 
nM

>  <pchembl_value>  (509) 
8.44

>  <published_type>  (509) 
IC50

>  <activity_comment>  (509) 
None

$$$$

     RDKit          

 37 40  0  0  0  0  0  0  0  0999 V2000
    0.0000    0.0000    0.0000 C   0  0  0  0  0  0  0  0  0  0  0  0
    0.0000    0.0000    0.0000 N   0  0  0  0  0  0  0  0  0  0  0  0
    0.0000    0.0000    0.0000 C   0  0  0  0  0  0  0  0  0  0  0  0
    0.0000    0.0000    0.0000 C   0  0  0  0  0  0  0  0  0  0  0  0
    0.0000    0.0000    0.0000 N   0  0  0  0  0  0  0  0  0  0  0  0
    0.0000    0.0000    0.0000 C   0  0  0  0  0  0  0  0  0  0  0  0
    0.0000    0.0000    0.0000 C   0  0  0  0  0  0  0  0  0  0  0  0
    0.0000    0.0000    0.0000 C   0  0  0  0  0  0  0  0  0  0  0  0
    0.0000    0.0000    0.0000 C   0  0  0  0  0  0  0  0  0  0  0  0
    0.0000    0.0000    0.0000 C   0  0  0  0  0  0  0  0  0  0  0  0
    0.0000    0.0000    0.0000 N   0  0  0  0  0  0  0  0  0  0  0  0
    0.0000    0.0000    0.0000 C   0  0  0  0  0  0  0  0  0  0  0  0
    0.0000    0.0000    0.0000 O   0  0  0  0  0  0  0  0  0  0  0  0
    0.0000    0.0000    0.0000 C   0  0  0  0  0  0  0  0  0  0  0  0
    0.0000    0.0000    0.0000 C   0  0  0  0  0  0  0  0  0  0  0  0
    0.0000    0.0000    0.0000 C   0  0  0  0  0  0  0  0  0  0  0  0
    0.0000    0.0000    0.0000 C   0  0  0  0  0  0  0  0  0  0  0  0
    0.0000    0.0000    0.0000 C   0  0  0  0  0  0  0  0  0  0  0  0
    0.0000    0.0000    0.0000 C   0  0  0  0  0  0  0  0  0  0  0  0
    0.0000    0.0000    0.0000 C   0  0  0  0  0  0  0  0  0  0  0  0
    0.0000    0.0000    0.0000 C   0  0  0  0  0  0  0  0  0  0  0  0
    0.0000    0.0000    0.0000 C   0  0  0  0  0  0  0  0  0  0  0  0
    0.0000    0.0000    0.0000 C   0  0  0  0  0  0  0  0  0  0  0  0
    0.0000    0.0000    0.0000 C   0  0  0  0  0  0  0  0  0  0  0  0
    0.0000    0.0000    0.0000 N   0  0  0  0  0  0  0  0  0  0  0  0
    0.0000    0.0000    0.0000 C   0  0  0  0  0  0  0  0  0  0  0  0
    0.0000    0.0000    0.0000 C   0  0  0  0  0  0  0  0  0  0  0  0
    0.0000    0.0000    0.0000 N   0  0  0  0  0  0  0  0  0  0  0  0
    0.0000    0.0000    0.0000 C   0  0  0  0  0  0  0  0  0  0  0  0
    0.0000    0.0000    0.0000 C   0  0  0  0  0  0  0  0  0  0  0  0
    0.0000    0.0000    0.0000 C   0  0  0  0  0  0  0  0  0  0  0  0
    0.0000    0.0000    0.0000 C   0  0  0  0  0  0  0  0  0  0  0  0
    0.0000    0.0000    0.0000 F   0  0  0  0  0  0  0  0  0  0  0  0
    0.0000    0.0000    0.0000 F   0  0  0  0  0  0  0  0  0  0  0  0
    0.0000    0.0000    0.0000 F   0  0  0  0  0  0  0  0  0  0  0  0
    0.0000    0.0000    0.0000 C   0  0  0  0  0  0  0  0  0  0  0  0
    0.0000    0.0000    0.0000 C   0  0  0  0  0  0  0  0  0  0  0  0
  1  2  1  0
  2  3  1  0
  3  4  1  0
  4  5  1  0
  5  6  1  0
  6  7  1  0
  7  8  2  0
  8  9  1  0
  9 10  2  0
 10 11  1  0
 11 12  1  0
 12 13  2  0
 12 14  1  0
 14 15  2  0
 15 16  1  0
 16 17  2  0
 17 18  1  0
 17 19  1  0
 19 20  2  0
 19 21  1  0
 21 22  3  0
 22 23  1  0
 23 24  2  0
 24 25  1  0
 25 26  2  0
 26 27  1  0
 26 28  1  0
 28 29  1  0
 10 30  1  0
 30 31  2  0
 31 32  1  0
 32 33  1  0
 32 34  1  0
 32 35  1  0
  5 36  1  0
 36 37  1  0
 37  2  1  0
 31  7  1  0
 20 14  1  0
 28 23  1  0
M  END
>  <pIC50>  (510) 
7.14

>  <ChEMBL_ID>  (510) 
CHEMBL1784633

>  <document_journal>  (510) 
Bioorg. Med. Chem. Lett.

>  <bao_endpoint>  (510) 
BAO_0000190

>  <potential_duplicate>  (510) 
False

>  <uo_units>  (510) 
UO_0000065

>  <canonical_smiles>  (510) 
CN1CCN(Cc2ccc(NC(=O)c3ccc(C)c(c3)C#Cc4cnc(C)n4C)cc2C(F)(F)F)CC1

>  <parent_molecule_chembl_id>  (510) 
CHEMBL1784633

>  <assay_type>  (510) 
B

>  <src_id>  (510) 
1

>  <ligand_efficiency>  (510) 
{u'le': u'0.26', u'bei': u'14.01', u'sei': u'13.37', u'lle': u'2.31'}

>  <standard_flag>  (510) 
True

>  <molecule_chembl_id>  (510) 
CHEMBL1784633

>  <target_organism>  (510) 
Homo sapiens

>  <standard_units>  (510) 
nM

>  <record_id>  (510) 
1429596

>  <document_chembl_id>  (510) 
CHEMBL1781971

>  <bao_format>  (510) 
BAO_0000357

>  <data_validity_description>  (510) 
None

>  <activity_id>  (510) 
6219757

>  <standard_type>  (510) 
IC50

>  <target_chembl_id>  (510) 
CHEMBL1862

>  <data_validity_comment>  (510) 
None

>  <published_value>  (510) 
72.6

>  <document_year>  (510) 
2011

>  <target_pref_name>  (510) 
Tyrosine-protein kinase ABL

>  <assay_chembl_id>  (510) 
CHEMBL1787640

>  <standard_relation>  (510) 
=

>  <assay_description>  (510) 
Inhibition of wild type human ABL using [EAIYAAPFAKKK] peptide substrate after 1 hr by TR-FRET assay

>  <published_relation>  (510) 
=

>  <standard_value>  (510) 
72.6

>  <qudt_units>  (510) 
http://www.openphacts.org/units/Nanomolar

>  <target_tax_id>  (510) 
9606

>  <bao_label>  (510) 
single protein format

>  <published_units>  (510) 
nM

>  <pchembl_value>  (510) 
7.14

>  <published_type>  (510) 
IC50

>  <activity_comment>  (510) 
None

$$$$

     RDKit          

 36 39  0  0  0  0  0  0  0  0999 V2000
    0.0000    0.0000    0.0000 C   0  0  0  0  0  0  0  0  0  0  0  0
    0.0000    0.0000    0.0000 N   0  0  0  0  0  0  0  0  0  0  0  0
    0.0000    0.0000    0.0000 C   0  0  0  0  0  0  0  0  0  0  0  0
    0.0000    0.0000    0.0000 C   0  0  0  0  0  0  0  0  0  0  0  0
    0.0000    0.0000    0.0000 N   0  0  0  0  0  0  0  0  0  0  0  0
    0.0000    0.0000    0.0000 C   0  0  0  0  0  0  0  0  0  0  0  0
    0.0000    0.0000    0.0000 C   0  0  0  0  0  0  0  0  0  0  0  0
    0.0000    0.0000    0.0000 C   0  0  0  0  0  0  0  0  0  0  0  0
    0.0000    0.0000    0.0000 C   0  0  0  0  0  0  0  0  0  0  0  0
    0.0000    0.0000    0.0000 C   0  0  0  0  0  0  0  0  0  0  0  0
    0.0000    0.0000    0.0000 N   0  0  0  0  0  0  0  0  0  0  0  0
    0.0000    0.0000    0.0000 C   0  0  0  0  0  0  0  0  0  0  0  0
    0.0000    0.0000    0.0000 O   0  0  0  0  0  0  0  0  0  0  0  0
    0.0000    0.0000    0.0000 C   0  0  0  0  0  0  0  0  0  0  0  0
    0.0000    0.0000    0.0000 C   0  0  0  0  0  0  0  0  0  0  0  0
    0.0000    0.0000    0.0000 C   0  0  0  0  0  0  0  0  0  0  0  0
    0.0000    0.0000    0.0000 C   0  0  0  0  0  0  0  0  0  0  0  0
    0.0000    0.0000    0.0000 C   0  0  0  0  0  0  0  0  0  0  0  0
    0.0000    0.0000    0.0000 C   0  0  0  0  0  0  0  0  0  0  0  0
    0.0000    0.0000    0.0000 C   0  0  0  0  0  0  0  0  0  0  0  0
    0.0000    0.0000    0.0000 C   0  0  0  0  0  0  0  0  0  0  0  0
    0.0000    0.0000    0.0000 C   0  0  0  0  0  0  0  0  0  0  0  0
    0.0000    0.0000    0.0000 C   0  0  0  0  0  0  0  0  0  0  0  0
    0.0000    0.0000    0.0000 C   0  0  0  0  0  0  0  0  0  0  0  0
    0.0000    0.0000    0.0000 N   0  0  0  0  0  0  0  0  0  0  0  0
    0.0000    0.0000    0.0000 C   0  0  0  0  0  0  0  0  0  0  0  0
    0.0000    0.0000    0.0000 N   0  0  0  0  0  0  0  0  0  0  0  0
    0.0000    0.0000    0.0000 C   0  0  0  0  0  0  0  0  0  0  0  0
    0.0000    0.0000    0.0000 C   0  0  0  0  0  0  0  0  0  0  0  0
    0.0000    0.0000    0.0000 C   0  0  0  0  0  0  0  0  0  0  0  0
    0.0000    0.0000    0.0000 C   0  0  0  0  0  0  0  0  0  0  0  0
    0.0000    0.0000    0.0000 F   0  0  0  0  0  0  0  0  0  0  0  0
    0.0000    0.0000    0.0000 F   0  0  0  0  0  0  0  0  0  0  0  0
    0.0000    0.0000    0.0000 F   0  0  0  0  0  0  0  0  0  0  0  0
    0.0000    0.0000    0.0000 C   0  0  0  0  0  0  0  0  0  0  0  0
    0.0000    0.0000    0.0000 C   0  0  0  0  0  0  0  0  0  0  0  0
  1  2  1  0
  2  3  1  0
  3  4  1  0
  4  5  1  0
  5  6  1  0
  6  7  1  0
  7  8  2  0
  8  9  1  0
  9 10  2  0
 10 11  1  0
 11 12  1  0
 12 13  2  0
 12 14  1  0
 14 15  2  0
 15 16  1  0
 16 17  2  0
 17 18  1  0
 17 19  1  0
 19 20  2  0
 19 21  1  0
 21 22  3  0
 22 23  1  0
 23 24  2  0
 24 25  1  0
 25 26  2  0
 26 27  1  0
 27 28  1  0
 10 29  1  0
 29 30  2  0
 30 31  1  0
 31 32  1  0
 31 33  1  0
 31 34  1  0
  5 35  1  0
 35 36  1  0
 36  2  1  0
 30  7  1  0
 20 14  1  0
 27 23  1  0
M  END
>  <pIC50>  (511) 
6.89

>  <ChEMBL_ID>  (511) 
CHEMBL1784632

>  <document_journal>  (511) 
Bioorg. Med. Chem. Lett.

>  <bao_endpoint>  (511) 
BAO_0000190

>  <potential_duplicate>  (511) 
False

>  <uo_units>  (511) 
UO_0000065

>  <canonical_smiles>  (511) 
CN1CCN(Cc2ccc(NC(=O)c3ccc(C)c(c3)C#Cc4cncn4C)cc2C(F)(F)F)CC1

>  <parent_molecule_chembl_id>  (511) 
CHEMBL1784632

>  <assay_type>  (511) 
B

>  <src_id>  (511) 
1

>  <ligand_efficiency>  (511) 
{u'le': u'0.26', u'bei': u'13.9', u'sei': u'12.9', u'lle': u'2.32'}

>  <standard_flag>  (511) 
True

>  <molecule_chembl_id>  (511) 
CHEMBL1784632

>  <target_organism>  (511) 
Homo sapiens

>  <standard_units>  (511) 
nM

>  <record_id>  (511) 
1429595

>  <document_chembl_id>  (511) 
CHEMBL1781971

>  <bao_format>  (511) 
BAO_0000357

>  <data_validity_description>  (511) 
None

>  <activity_id>  (511) 
6219758

>  <standard_type>  (511) 
IC50

>  <target_chembl_id>  (511) 
CHEMBL1862

>  <data_validity_comment>  (511) 
None

>  <published_value>  (511) 
129

>  <document_year>  (511) 
2011

>  <target_pref_name>  (511) 
Tyrosine-protein kinase ABL

>  <assay_chembl_id>  (511) 
CHEMBL1787640

>  <standard_relation>  (511) 
=

>  <assay_description>  (511) 
Inhibition of wild type human ABL using [EAIYAAPFAKKK] peptide substrate after 1 hr by TR-FRET assay

>  <published_relation>  (511) 
=

>  <standard_value>  (511) 
129

>  <qudt_units>  (511) 
http://www.openphacts.org/units/Nanomolar

>  <target_tax_id>  (511) 
9606

>  <bao_label>  (511) 
single protein format

>  <published_units>  (511) 
nM

>  <pchembl_value>  (511) 
6.89

>  <published_type>  (511) 
IC50

>  <activity_comment>  (511) 
None

$$$$

     RDKit          

 35 38  0  0  0  0  0  0  0  0999 V2000
    0.0000    0.0000    0.0000 C   0  0  0  0  0  0  0  0  0  0  0  0
    0.0000    0.0000    0.0000 N   0  0  0  0  0  0  0  0  0  0  0  0
    0.0000    0.0000    0.0000 C   0  0  0  0  0  0  0  0  0  0  0  0
    0.0000    0.0000    0.0000 C   0  0  0  0  0  0  0  0  0  0  0  0
    0.0000    0.0000    0.0000 N   0  0  0  0  0  0  0  0  0  0  0  0
    0.0000    0.0000    0.0000 C   0  0  0  0  0  0  0  0  0  0  0  0
    0.0000    0.0000    0.0000 C   0  0  0  0  0  0  0  0  0  0  0  0
    0.0000    0.0000    0.0000 C   0  0  0  0  0  0  0  0  0  0  0  0
    0.0000    0.0000    0.0000 C   0  0  0  0  0  0  0  0  0  0  0  0
    0.0000    0.0000    0.0000 C   0  0  0  0  0  0  0  0  0  0  0  0
    0.0000    0.0000    0.0000 N   0  0  0  0  0  0  0  0  0  0  0  0
    0.0000    0.0000    0.0000 C   0  0  0  0  0  0  0  0  0  0  0  0
    0.0000    0.0000    0.0000 O   0  0  0  0  0  0  0  0  0  0  0  0
    0.0000    0.0000    0.0000 C   0  0  0  0  0  0  0  0  0  0  0  0
    0.0000    0.0000    0.0000 C   0  0  0  0  0  0  0  0  0  0  0  0
    0.0000    0.0000    0.0000 C   0  0  0  0  0  0  0  0  0  0  0  0
    0.0000    0.0000    0.0000 C   0  0  0  0  0  0  0  0  0  0  0  0
    0.0000    0.0000    0.0000 C   0  0  0  0  0  0  0  0  0  0  0  0
    0.0000    0.0000    0.0000 C   0  0  0  0  0  0  0  0  0  0  0  0
    0.0000    0.0000    0.0000 C   0  0  0  0  0  0  0  0  0  0  0  0
    0.0000    0.0000    0.0000 C   0  0  0  0  0  0  0  0  0  0  0  0
    0.0000    0.0000    0.0000 C   0  0  0  0  0  0  0  0  0  0  0  0
    0.0000    0.0000    0.0000 C   0  0  0  0  0  0  0  0  0  0  0  0
    0.0000    0.0000    0.0000 C   0  0  0  0  0  0  0  0  0  0  0  0
    0.0000    0.0000    0.0000 N   0  0  0  0  0  0  0  0  0  0  0  0
    0.0000    0.0000    0.0000 C   0  0  0  0  0  0  0  0  0  0  0  0
    0.0000    0.0000    0.0000 N   0  0  0  0  0  0  0  0  0  0  0  0
    0.0000    0.0000    0.0000 C   0  0  0  0  0  0  0  0  0  0  0  0
    0.0000    0.0000    0.0000 C   0  0  0  0  0  0  0  0  0  0  0  0
    0.0000    0.0000    0.0000 C   0  0  0  0  0  0  0  0  0  0  0  0
    0.0000    0.0000    0.0000 F   0  0  0  0  0  0  0  0  0  0  0  0
    0.0000    0.0000    0.0000 F   0  0  0  0  0  0  0  0  0  0  0  0
    0.0000    0.0000    0.0000 F   0  0  0  0  0  0  0  0  0  0  0  0
    0.0000    0.0000    0.0000 C   0  0  0  0  0  0  0  0  0  0  0  0
    0.0000    0.0000    0.0000 C   0  0  0  0  0  0  0  0  0  0  0  0
  1  2  1  0
  2  3  1  0
  3  4  1  0
  4  5  1  0
  5  6  1  0
  6  7  1  0
  7  8  2  0
  8  9  1  0
  9 10  2  0
 10 11  1  0
 11 12  1  0
 12 13  2  0
 12 14  1  0
 14 15  2  0
 15 16  1  0
 16 17  2  0
 17 18  1  0
 17 19  1  0
 19 20  2  0
 19 21  1  0
 21 22  3  0
 22 23  1  0
 23 24  2  0
 24 25  1  0
 25 26  2  0
 26 27  1  0
 10 28  1  0
 28 29  2  0
 29 30  1  0
 30 31  1  0
 30 32  1  0
 30 33  1  0
  5 34  1  0
 34 35  1  0
 35  2  1  0
 29  7  1  0
 20 14  1  0
 27 23  1  0
M  END
>  <pIC50>  (512) 
6.0

>  <ChEMBL_ID>  (512) 
CHEMBL1784631

>  <document_journal>  (512) 
Bioorg. Med. Chem. Lett.

>  <bao_endpoint>  (512) 
BAO_0000190

>  <potential_duplicate>  (512) 
False

>  <uo_units>  (512) 
UO_0000065

>  <canonical_smiles>  (512) 
CN1CCN(Cc2ccc(NC(=O)c3ccc(C)c(c3)C#Cc4cnc[nH]4)cc2C(F)(F)F)CC1

>  <parent_molecule_chembl_id>  (512) 
CHEMBL1784631

>  <assay_type>  (512) 
B

>  <src_id>  (512) 
1

>  <ligand_efficiency>  (512) 
{u'le': u'0.23', u'bei': u'12.46', u'sei': u'9.34', u'lle': u'1.64'}

>  <standard_flag>  (512) 
True

>  <molecule_chembl_id>  (512) 
CHEMBL1784631

>  <target_organism>  (512) 
Homo sapiens

>  <standard_units>  (512) 
nM

>  <record_id>  (512) 
1429594

>  <document_chembl_id>  (512) 
CHEMBL1781971

>  <bao_format>  (512) 
BAO_0000357

>  <data_validity_description>  (512) 
None

>  <activity_id>  (512) 
6219759

>  <standard_type>  (512) 
IC50

>  <target_chembl_id>  (512) 
CHEMBL1862

>  <data_validity_comment>  (512) 
None

>  <published_value>  (512) 
1000

>  <document_year>  (512) 
2011

>  <target_pref_name>  (512) 
Tyrosine-protein kinase ABL

>  <assay_chembl_id>  (512) 
CHEMBL1787640

>  <standard_relation>  (512) 
=

>  <assay_description>  (512) 
Inhibition of wild type human ABL using [EAIYAAPFAKKK] peptide substrate after 1 hr by TR-FRET assay

>  <published_relation>  (512) 
=

>  <standard_value>  (512) 
1000

>  <qudt_units>  (512) 
http://www.openphacts.org/units/Nanomolar

>  <target_tax_id>  (512) 
9606

>  <bao_label>  (512) 
single protein format

>  <published_units>  (512) 
nM

>  <pchembl_value>  (512) 
6

>  <published_type>  (512) 
IC50

>  <activity_comment>  (512) 
None

$$$$

     RDKit          

 40 44  0  0  0  0  0  0  0  0999 V2000
    0.0000    0.0000    0.0000 C   0  0  0  0  0  0  0  0  0  0  0  0
    0.0000    0.0000    0.0000 N   0  0  0  0  0  0  0  0  0  0  0  0
    0.0000    0.0000    0.0000 C   0  0  0  0  0  0  0  0  0  0  0  0
    0.0000    0.0000    0.0000 C   0  0  0  0  0  0  0  0  0  0  0  0
    0.0000    0.0000    0.0000 N   0  0  0  0  0  0  0  0  0  0  0  0
    0.0000    0.0000    0.0000 C   0  0  0  0  0  0  0  0  0  0  0  0
    0.0000    0.0000    0.0000 C   0  0  0  0  0  0  0  0  0  0  0  0
    0.0000    0.0000    0.0000 C   0  0  0  0  0  0  0  0  0  0  0  0
    0.0000    0.0000    0.0000 C   0  0  0  0  0  0  0  0  0  0  0  0
    0.0000    0.0000    0.0000 C   0  0  0  0  0  0  0  0  0  0  0  0
    0.0000    0.0000    0.0000 N   0  0  0  0  0  0  0  0  0  0  0  0
    0.0000    0.0000    0.0000 C   0  0  0  0  0  0  0  0  0  0  0  0
    0.0000    0.0000    0.0000 O   0  0  0  0  0  0  0  0  0  0  0  0
    0.0000    0.0000    0.0000 C   0  0  0  0  0  0  0  0  0  0  0  0
    0.0000    0.0000    0.0000 C   0  0  0  0  0  0  0  0  0  0  0  0
    0.0000    0.0000    0.0000 C   0  0  0  0  0  0  0  0  0  0  0  0
    0.0000    0.0000    0.0000 C   0  0  0  0  0  0  0  0  0  0  0  0
    0.0000    0.0000    0.0000 C   0  0  0  0  0  0  0  0  0  0  0  0
    0.0000    0.0000    0.0000 C   0  0  0  0  0  0  0  0  0  0  0  0
    0.0000    0.0000    0.0000 C   0  0  0  0  0  0  0  0  0  0  0  0
    0.0000    0.0000    0.0000 C   0  0  0  0  0  0  0  0  0  0  0  0
    0.0000    0.0000    0.0000 C   0  0  0  0  0  0  0  0  0  0  0  0
    0.0000    0.0000    0.0000 C   0  0  0  0  0  0  0  0  0  0  0  0
    0.0000    0.0000    0.0000 C   0  0  0  0  0  0  0  0  0  0  0  0
    0.0000    0.0000    0.0000 N   0  0  0  0  0  0  0  0  0  0  0  0
    0.0000    0.0000    0.0000 C   0  0  0  0  0  0  0  0  0  0  0  0
    0.0000    0.0000    0.0000 N   0  0  0  0  0  0  0  0  0  0  0  0
    0.0000    0.0000    0.0000 C   0  0  0  0  0  0  0  0  0  0  0  0
    0.0000    0.0000    0.0000 C   0  0  0  0  0  0  0  0  0  0  0  0
    0.0000    0.0000    0.0000 C   0  0  0  0  0  0  0  0  0  0  0  0
    0.0000    0.0000    0.0000 N   0  0  0  0  0  0  0  0  0  0  0  0
    0.0000    0.0000    0.0000 C   0  0  0  0  0  0  0  0  0  0  0  0
    0.0000    0.0000    0.0000 C   0  0  0  0  0  0  0  0  0  0  0  0
    0.0000    0.0000    0.0000 C   0  0  0  0  0  0  0  0  0  0  0  0
    0.0000    0.0000    0.0000 C   0  0  0  0  0  0  0  0  0  0  0  0
    0.0000    0.0000    0.0000 F   0  0  0  0  0  0  0  0  0  0  0  0
    0.0000    0.0000    0.0000 F   0  0  0  0  0  0  0  0  0  0  0  0
    0.0000    0.0000    0.0000 F   0  0  0  0  0  0  0  0  0  0  0  0
    0.0000    0.0000    0.0000 C   0  0  0  0  0  0  0  0  0  0  0  0
    0.0000    0.0000    0.0000 C   0  0  0  0  0  0  0  0  0  0  0  0
  1  2  1  0
  2  3  1  0
  3  4  1  0
  4  5  1  0
  5  6  1  0
  6  7  1  0
  7  8  2  0
  8  9  1  0
  9 10  2  0
 10 11  1  0
 11 12  1  0
 12 13  2  0
 12 14  1  0
 14 15  2  0
 15 16  1  0
 16 17  2  0
 17 18  1  0
 17 19  1  0
 19 20  2  0
 19 21  1  0
 21 22  3  0
 22 23  1  0
 23 24  2  0
 24 25  1  0
 25 26  2  0
 26 27  1  0
 27 28  1  0
 28 29  1  0
 29 30  1  0
 26 31  1  0
 31 32  2  0
 10 33  1  0
 33 34  2  0
 34 35  1  0
 35 36  1  0
 35 37  1  0
 35 38  1  0
  5 39  1  0
 39 40  1  0
 40  2  1  0
 34  7  1  0
 20 14  1  0
 32 23  1  0
 30 28  1  0
M  END
>  <pIC50>  (513) 
7.3

>  <ChEMBL_ID>  (513) 
CHEMBL1784630

>  <document_journal>  (513) 
Bioorg. Med. Chem. Lett.

>  <bao_endpoint>  (513) 
BAO_0000190

>  <potential_duplicate>  (513) 
False

>  <uo_units>  (513) 
UO_0000065

>  <canonical_smiles>  (513) 
CN1CCN(Cc2ccc(NC(=O)c3ccc(C)c(c3)C#Cc4cnc(NC5CC5)nc4)cc2C(F)(F)F)CC1

>  <parent_molecule_chembl_id>  (513) 
CHEMBL1784630

>  <assay_type>  (513) 
B

>  <src_id>  (513) 
1

>  <ligand_efficiency>  (513) 
{u'le': u'0.25', u'bei': u'13.31', u'sei': u'9.95', u'lle': u'2.08'}

>  <standard_flag>  (513) 
True

>  <molecule_chembl_id>  (513) 
CHEMBL1784630

>  <target_organism>  (513) 
Homo sapiens

>  <standard_units>  (513) 
nM

>  <record_id>  (513) 
1429593

>  <document_chembl_id>  (513) 
CHEMBL1781971

>  <bao_format>  (513) 
BAO_0000357

>  <data_validity_description>  (513) 
None

>  <activity_id>  (513) 
6219760

>  <standard_type>  (513) 
IC50

>  <target_chembl_id>  (513) 
CHEMBL1862

>  <data_validity_comment>  (513) 
None

>  <published_value>  (513) 
49.7

>  <document_year>  (513) 
2011

>  <target_pref_name>  (513) 
Tyrosine-protein kinase ABL

>  <assay_chembl_id>  (513) 
CHEMBL1787640

>  <standard_relation>  (513) 
=

>  <assay_description>  (513) 
Inhibition of wild type human ABL using [EAIYAAPFAKKK] peptide substrate after 1 hr by TR-FRET assay

>  <published_relation>  (513) 
=

>  <standard_value>  (513) 
49.7

>  <qudt_units>  (513) 
http://www.openphacts.org/units/Nanomolar

>  <target_tax_id>  (513) 
9606

>  <bao_label>  (513) 
single protein format

>  <published_units>  (513) 
nM

>  <pchembl_value>  (513) 
7.3

>  <published_type>  (513) 
IC50

>  <activity_comment>  (513) 
None

$$$$

     RDKit          

 39 42  0  0  0  0  0  0  0  0999 V2000
    0.0000    0.0000    0.0000 C   0  0  0  0  0  0  0  0  0  0  0  0
    0.0000    0.0000    0.0000 N   0  0  0  0  0  0  0  0  0  0  0  0
    0.0000    0.0000    0.0000 C   0  0  0  0  0  0  0  0  0  0  0  0
    0.0000    0.0000    0.0000 C   0  0  0  0  0  0  0  0  0  0  0  0
    0.0000    0.0000    0.0000 N   0  0  0  0  0  0  0  0  0  0  0  0
    0.0000    0.0000    0.0000 C   0  0  0  0  0  0  0  0  0  0  0  0
    0.0000    0.0000    0.0000 C   0  0  0  0  0  0  0  0  0  0  0  0
    0.0000    0.0000    0.0000 C   0  0  0  0  0  0  0  0  0  0  0  0
    0.0000    0.0000    0.0000 C   0  0  0  0  0  0  0  0  0  0  0  0
    0.0000    0.0000    0.0000 C   0  0  0  0  0  0  0  0  0  0  0  0
    0.0000    0.0000    0.0000 N   0  0  0  0  0  0  0  0  0  0  0  0
    0.0000    0.0000    0.0000 C   0  0  0  0  0  0  0  0  0  0  0  0
    0.0000    0.0000    0.0000 O   0  0  0  0  0  0  0  0  0  0  0  0
    0.0000    0.0000    0.0000 C   0  0  0  0  0  0  0  0  0  0  0  0
    0.0000    0.0000    0.0000 C   0  0  0  0  0  0  0  0  0  0  0  0
    0.0000    0.0000    0.0000 C   0  0  0  0  0  0  0  0  0  0  0  0
    0.0000    0.0000    0.0000 C   0  0  0  0  0  0  0  0  0  0  0  0
    0.0000    0.0000    0.0000 C   0  0  0  0  0  0  0  0  0  0  0  0
    0.0000    0.0000    0.0000 C   0  0  0  0  0  0  0  0  0  0  0  0
    0.0000    0.0000    0.0000 C   0  0  0  0  0  0  0  0  0  0  0  0
    0.0000    0.0000    0.0000 C   0  0  0  0  0  0  0  0  0  0  0  0
    0.0000    0.0000    0.0000 C   0  0  0  0  0  0  0  0  0  0  0  0
    0.0000    0.0000    0.0000 C   0  0  0  0  0  0  0  0  0  0  0  0
    0.0000    0.0000    0.0000 C   0  0  0  0  0  0  0  0  0  0  0  0
    0.0000    0.0000    0.0000 C   0  0  0  0  0  0  0  0  0  0  0  0
    0.0000    0.0000    0.0000 C   0  0  0  0  0  0  0  0  0  0  0  0
    0.0000    0.0000    0.0000 N   0  0  0  0  0  0  0  0  0  0  0  0
    0.0000    0.0000    0.0000 C   0  0  0  0  0  0  0  0  0  0  0  0
    0.0000    0.0000    0.0000 C   0  0  0  0  0  0  0  0  0  0  0  0
    0.0000    0.0000    0.0000 O   0  0  0  0  0  0  0  0  0  0  0  0
    0.0000    0.0000    0.0000 N   0  0  0  0  0  0  0  0  0  0  0  0
    0.0000    0.0000    0.0000 C   0  0  0  0  0  0  0  0  0  0  0  0
    0.0000    0.0000    0.0000 C   0  0  0  0  0  0  0  0  0  0  0  0
    0.0000    0.0000    0.0000 C   0  0  0  0  0  0  0  0  0  0  0  0
    0.0000    0.0000    0.0000 F   0  0  0  0  0  0  0  0  0  0  0  0
    0.0000    0.0000    0.0000 F   0  0  0  0  0  0  0  0  0  0  0  0
    0.0000    0.0000    0.0000 F   0  0  0  0  0  0  0  0  0  0  0  0
    0.0000    0.0000    0.0000 C   0  0  0  0  0  0  0  0  0  0  0  0
    0.0000    0.0000    0.0000 C   0  0  0  0  0  0  0  0  0  0  0  0
  1  2  1  0
  2  3  1  0
  3  4  1  0
  4  5  1  0
  5  6  1  0
  6  7  1  0
  7  8  2  0
  8  9  1  0
  9 10  2  0
 10 11  1  0
 11 12  1  0
 12 13  2  0
 12 14  1  0
 14 15  2  0
 15 16  1  0
 16 17  2  0
 17 18  1  0
 17 19  1  0
 19 20  2  0
 19 21  1  0
 21 22  3  0
 22 23  1  0
 23 24  2  0
 24 25  1  0
 25 26  2  0
 26 27  1  0
 27 28  2  0
 26 29  1  0
 29 30  2  0
 29 31  1  0
 10 32  1  0
 32 33  2  0
 33 34  1  0
 34 35  1  0
 34 36  1  0
 34 37  1  0
  5 38  1  0
 38 39  1  0
 39  2  1  0
 33  7  1  0
 20 14  1  0
 28 23  1  0
M  END
>  <pIC50>  (514) 
7.31

>  <ChEMBL_ID>  (514) 
CHEMBL1784629

>  <document_journal>  (514) 
Bioorg. Med. Chem. Lett.

>  <bao_endpoint>  (514) 
BAO_0000190

>  <potential_duplicate>  (514) 
False

>  <uo_units>  (514) 
UO_0000065

>  <canonical_smiles>  (514) 
CN1CCN(Cc2ccc(NC(=O)c3ccc(C)c(c3)C#Cc4ccc(nc4)C(=O)N)cc2C(F)(F)F)CC1

>  <parent_molecule_chembl_id>  (514) 
CHEMBL1784629

>  <assay_type>  (514) 
B

>  <src_id>  (514) 
1

>  <ligand_efficiency>  (514) 
{u'le': u'0.26', u'bei': u'13.65', u'sei': u'7.99', u'lle': u'2.85'}

>  <standard_flag>  (514) 
True

>  <molecule_chembl_id>  (514) 
CHEMBL1784629

>  <target_organism>  (514) 
Homo sapiens

>  <standard_units>  (514) 
nM

>  <record_id>  (514) 
1429592

>  <document_chembl_id>  (514) 
CHEMBL1781971

>  <bao_format>  (514) 
BAO_0000357

>  <data_validity_description>  (514) 
None

>  <activity_id>  (514) 
6219761

>  <standard_type>  (514) 
IC50

>  <target_chembl_id>  (514) 
CHEMBL1862

>  <data_validity_comment>  (514) 
None

>  <published_value>  (514) 
48.7

>  <document_year>  (514) 
2011

>  <target_pref_name>  (514) 
Tyrosine-protein kinase ABL

>  <assay_chembl_id>  (514) 
CHEMBL1787640

>  <standard_relation>  (514) 
=

>  <assay_description>  (514) 
Inhibition of wild type human ABL using [EAIYAAPFAKKK] peptide substrate after 1 hr by TR-FRET assay

>  <published_relation>  (514) 
=

>  <standard_value>  (514) 
48.7

>  <qudt_units>  (514) 
http://www.openphacts.org/units/Nanomolar

>  <target_tax_id>  (514) 
9606

>  <bao_label>  (514) 
single protein format

>  <published_units>  (514) 
nM

>  <pchembl_value>  (514) 
7.31

>  <published_type>  (514) 
IC50

>  <activity_comment>  (514) 
None

$$$$

     RDKit          

 41 44  0  0  0  0  0  0  0  0999 V2000
    0.0000    0.0000    0.0000 C   0  0  0  0  0  0  0  0  0  0  0  0
    0.0000    0.0000    0.0000 C   0  0  0  0  0  0  0  0  0  0  0  0
    0.0000    0.0000    0.0000 C   0  0  0  0  0  0  0  0  0  0  0  0
    0.0000    0.0000    0.0000 O   0  0  0  0  0  0  0  0  0  0  0  0
    0.0000    0.0000    0.0000 N   0  0  0  0  0  0  0  0  0  0  0  0
    0.0000    0.0000    0.0000 C   0  0  0  0  0  0  0  0  0  0  0  0
    0.0000    0.0000    0.0000 C   0  0  0  0  0  0  0  0  0  0  0  0
    0.0000    0.0000    0.0000 C   0  0  0  0  0  0  0  0  0  0  0  0
    0.0000    0.0000    0.0000 C   0  0  0  0  0  0  0  0  0  0  0  0
    0.0000    0.0000    0.0000 C   0  0  0  0  0  0  0  0  0  0  0  0
    0.0000    0.0000    0.0000 N   0  0  0  0  0  0  0  0  0  0  0  0
    0.0000    0.0000    0.0000 C   0  0  0  0  0  0  0  0  0  0  0  0
    0.0000    0.0000    0.0000 C   0  0  0  0  0  0  0  0  0  0  0  0
    0.0000    0.0000    0.0000 C   0  0  0  0  0  0  0  0  0  0  0  0
    0.0000    0.0000    0.0000 C   0  0  0  0  0  0  0  0  0  0  0  0
    0.0000    0.0000    0.0000 C   0  0  0  0  0  0  0  0  0  0  0  0
    0.0000    0.0000    0.0000 C   0  0  0  0  0  0  0  0  0  0  0  0
    0.0000    0.0000    0.0000 C   0  0  0  0  0  0  0  0  0  0  0  0
    0.0000    0.0000    0.0000 C   0  0  0  0  0  0  0  0  0  0  0  0
    0.0000    0.0000    0.0000 C   0  0  0  0  0  0  0  0  0  0  0  0
    0.0000    0.0000    0.0000 C   0  0  0  0  0  0  0  0  0  0  0  0
    0.0000    0.0000    0.0000 O   0  0  0  0  0  0  0  0  0  0  0  0
    0.0000    0.0000    0.0000 N   0  0  0  0  0  0  0  0  0  0  0  0
    0.0000    0.0000    0.0000 C   0  0  0  0  0  0  0  0  0  0  0  0
    0.0000    0.0000    0.0000 C   0  0  0  0  0  0  0  0  0  0  0  0
    0.0000    0.0000    0.0000 C   0  0  0  0  0  0  0  0  0  0  0  0
    0.0000    0.0000    0.0000 C   0  0  0  0  0  0  0  0  0  0  0  0
    0.0000    0.0000    0.0000 C   0  0  0  0  0  0  0  0  0  0  0  0
    0.0000    0.0000    0.0000 N   0  0  0  0  0  0  0  0  0  0  0  0
    0.0000    0.0000    0.0000 C   0  0  0  0  0  0  0  0  0  0  0  0
    0.0000    0.0000    0.0000 C   0  0  0  0  0  0  0  0  0  0  0  0
    0.0000    0.0000    0.0000 N   0  0  0  0  0  0  0  0  0  0  0  0
    0.0000    0.0000    0.0000 C   0  0  0  0  0  0  0  0  0  0  0  0
    0.0000    0.0000    0.0000 C   0  0  0  0  0  0  0  0  0  0  0  0
    0.0000    0.0000    0.0000 C   0  0  0  0  0  0  0  0  0  0  0  0
    0.0000    0.0000    0.0000 C   0  0  0  0  0  0  0  0  0  0  0  0
    0.0000    0.0000    0.0000 C   0  0  0  0  0  0  0  0  0  0  0  0
    0.0000    0.0000    0.0000 C   0  0  0  0  0  0  0  0  0  0  0  0
    0.0000    0.0000    0.0000 F   0  0  0  0  0  0  0  0  0  0  0  0
    0.0000    0.0000    0.0000 F   0  0  0  0  0  0  0  0  0  0  0  0
    0.0000    0.0000    0.0000 F   0  0  0  0  0  0  0  0  0  0  0  0
  1  2  1  0
  2  3  1  0
  3  4  2  0
  3  5  1  0
  5  6  1  0
  6  7  2  0
  7  8  1  0
  8  9  2  0
  9 10  1  0
 10 11  2  0
  9 12  1  0
 12 13  3  0
 13 14  1  0
 14 15  2  0
 15 16  1  0
 16 17  2  0
 17 18  1  0
 18 19  2  0
 19 20  1  0
 16 21  1  0
 21 22  2  0
 21 23  1  0
 23 24  1  0
 24 25  2  0
 25 26  1  0
 26 27  2  0
 27 28  1  0
 28 29  1  0
 29 30  1  0
 30 31  1  0
 31 32  1  0
 32 33  1  0
 32 34  1  0
 34 35  1  0
 27 36  1  0
 36 37  2  0
 36 38  1  0
 38 39  1  0
 38 40  1  0
 38 41  1  0
 11  6  1  0
 19 14  1  0
 37 24  1  0
 35 29  1  0
M  END
>  <pIC50>  (515) 
7.54

>  <ChEMBL_ID>  (515) 
CHEMBL1784628

>  <document_journal>  (515) 
Bioorg. Med. Chem. Lett.

>  <bao_endpoint>  (515) 
BAO_0000190

>  <potential_duplicate>  (515) 
False

>  <uo_units>  (515) 
UO_0000065

>  <canonical_smiles>  (515) 
CCC(=O)Nc1ccc(cn1)C#Cc2cc(ccc2C)C(=O)Nc3ccc(CN4CCN(C)CC4)c(c3)C(F)(F)F

>  <parent_molecule_chembl_id>  (515) 
CHEMBL1784628

>  <assay_type>  (515) 
B

>  <src_id>  (515) 
1

>  <ligand_efficiency>  (515) 
{u'le': u'0.25', u'bei': u'13.38', u'sei': u'9.72', u'lle': u'2.18'}

>  <standard_flag>  (515) 
True

>  <molecule_chembl_id>  (515) 
CHEMBL1784628

>  <target_organism>  (515) 
Homo sapiens

>  <standard_units>  (515) 
nM

>  <record_id>  (515) 
1429591

>  <document_chembl_id>  (515) 
CHEMBL1781971

>  <bao_format>  (515) 
BAO_0000357

>  <data_validity_description>  (515) 
None

>  <activity_id>  (515) 
6219762

>  <standard_type>  (515) 
IC50

>  <target_chembl_id>  (515) 
CHEMBL1862

>  <data_validity_comment>  (515) 
None

>  <published_value>  (515) 
28.6

>  <document_year>  (515) 
2011

>  <target_pref_name>  (515) 
Tyrosine-protein kinase ABL

>  <assay_chembl_id>  (515) 
CHEMBL1787640

>  <standard_relation>  (515) 
=

>  <assay_description>  (515) 
Inhibition of wild type human ABL using [EAIYAAPFAKKK] peptide substrate after 1 hr by TR-FRET assay

>  <published_relation>  (515) 
=

>  <standard_value>  (515) 
28.6

>  <qudt_units>  (515) 
http://www.openphacts.org/units/Nanomolar

>  <target_tax_id>  (515) 
9606

>  <bao_label>  (515) 
single protein format

>  <published_units>  (515) 
nM

>  <pchembl_value>  (515) 
7.54

>  <published_type>  (515) 
IC50

>  <activity_comment>  (515) 
None

$$$$

     RDKit          

 40 43  0  0  0  0  0  0  0  0999 V2000
    0.0000    0.0000    0.0000 C   0  0  0  0  0  0  0  0  0  0  0  0
    0.0000    0.0000    0.0000 N   0  0  0  0  0  0  0  0  0  0  0  0
    0.0000    0.0000    0.0000 C   0  0  0  0  0  0  0  0  0  0  0  0
    0.0000    0.0000    0.0000 C   0  0  0  0  0  0  0  0  0  0  0  0
    0.0000    0.0000    0.0000 N   0  0  0  0  0  0  0  0  0  0  0  0
    0.0000    0.0000    0.0000 C   0  0  0  0  0  0  0  0  0  0  0  0
    0.0000    0.0000    0.0000 C   0  0  0  0  0  0  0  0  0  0  0  0
    0.0000    0.0000    0.0000 C   0  0  0  0  0  0  0  0  0  0  0  0
    0.0000    0.0000    0.0000 C   0  0  0  0  0  0  0  0  0  0  0  0
    0.0000    0.0000    0.0000 C   0  0  0  0  0  0  0  0  0  0  0  0
    0.0000    0.0000    0.0000 N   0  0  0  0  0  0  0  0  0  0  0  0
    0.0000    0.0000    0.0000 C   0  0  0  0  0  0  0  0  0  0  0  0
    0.0000    0.0000    0.0000 O   0  0  0  0  0  0  0  0  0  0  0  0
    0.0000    0.0000    0.0000 C   0  0  0  0  0  0  0  0  0  0  0  0
    0.0000    0.0000    0.0000 C   0  0  0  0  0  0  0  0  0  0  0  0
    0.0000    0.0000    0.0000 C   0  0  0  0  0  0  0  0  0  0  0  0
    0.0000    0.0000    0.0000 C   0  0  0  0  0  0  0  0  0  0  0  0
    0.0000    0.0000    0.0000 C   0  0  0  0  0  0  0  0  0  0  0  0
    0.0000    0.0000    0.0000 C   0  0  0  0  0  0  0  0  0  0  0  0
    0.0000    0.0000    0.0000 C   0  0  0  0  0  0  0  0  0  0  0  0
    0.0000    0.0000    0.0000 C   0  0  0  0  0  0  0  0  0  0  0  0
    0.0000    0.0000    0.0000 C   0  0  0  0  0  0  0  0  0  0  0  0
    0.0000    0.0000    0.0000 C   0  0  0  0  0  0  0  0  0  0  0  0
    0.0000    0.0000    0.0000 C   0  0  0  0  0  0  0  0  0  0  0  0
    0.0000    0.0000    0.0000 C   0  0  0  0  0  0  0  0  0  0  0  0
    0.0000    0.0000    0.0000 C   0  0  0  0  0  0  0  0  0  0  0  0
    0.0000    0.0000    0.0000 N   0  0  0  0  0  0  0  0  0  0  0  0
    0.0000    0.0000    0.0000 C   0  0  0  0  0  0  0  0  0  0  0  0
    0.0000    0.0000    0.0000 O   0  0  0  0  0  0  0  0  0  0  0  0
    0.0000    0.0000    0.0000 C   0  0  0  0  0  0  0  0  0  0  0  0
    0.0000    0.0000    0.0000 N   0  0  0  0  0  0  0  0  0  0  0  0
    0.0000    0.0000    0.0000 C   0  0  0  0  0  0  0  0  0  0  0  0
    0.0000    0.0000    0.0000 C   0  0  0  0  0  0  0  0  0  0  0  0
    0.0000    0.0000    0.0000 C   0  0  0  0  0  0  0  0  0  0  0  0
    0.0000    0.0000    0.0000 C   0  0  0  0  0  0  0  0  0  0  0  0
    0.0000    0.0000    0.0000 F   0  0  0  0  0  0  0  0  0  0  0  0
    0.0000    0.0000    0.0000 F   0  0  0  0  0  0  0  0  0  0  0  0
    0.0000    0.0000    0.0000 F   0  0  0  0  0  0  0  0  0  0  0  0
    0.0000    0.0000    0.0000 C   0  0  0  0  0  0  0  0  0  0  0  0
    0.0000    0.0000    0.0000 C   0  0  0  0  0  0  0  0  0  0  0  0
  1  2  1  0
  2  3  1  0
  3  4  1  0
  4  5  1  0
  5  6  1  0
  6  7  1  0
  7  8  2  0
  8  9  1  0
  9 10  2  0
 10 11  1  0
 11 12  1  0
 12 13  2  0
 12 14  1  0
 14 15  2  0
 15 16  1  0
 16 17  2  0
 17 18  1  0
 17 19  1  0
 19 20  2  0
 19 21  1  0
 21 22  3  0
 22 23  1  0
 23 24  2  0
 24 25  1  0
 25 26  2  0
 26 27  1  0
 27 28  1  0
 28 29  2  0
 28 30  1  0
 26 31  1  0
 31 32  2  0
 10 33  1  0
 33 34  2  0
 34 35  1  0
 35 36  1  0
 35 37  1  0
 35 38  1  0
  5 39  1  0
 39 40  1  0
 40  2  1  0
 34  7  1  0
 20 14  1  0
 32 23  1  0
M  END
>  <pIC50>  (516) 
7.75

>  <ChEMBL_ID>  (516) 
CHEMBL1784627

>  <document_journal>  (516) 
Bioorg. Med. Chem. Lett.

>  <bao_endpoint>  (516) 
BAO_0000190

>  <potential_duplicate>  (516) 
False

>  <uo_units>  (516) 
UO_0000065

>  <canonical_smiles>  (516) 
CN1CCN(Cc2ccc(NC(=O)c3ccc(C)c(c3)C#Cc4ccc(NC(=O)C)nc4)cc2C(F)(F)F)CC1

>  <parent_molecule_chembl_id>  (516) 
CHEMBL1784627

>  <assay_type>  (516) 
B

>  <src_id>  (516) 
1

>  <ligand_efficiency>  (516) 
{u'le': u'0.26', u'bei': u'14.09', u'sei': u'9.98', u'lle': u'3.05'}

>  <standard_flag>  (516) 
True

>  <molecule_chembl_id>  (516) 
CHEMBL1784627

>  <target_organism>  (516) 
Homo sapiens

>  <standard_units>  (516) 
nM

>  <record_id>  (516) 
1429590

>  <document_chembl_id>  (516) 
CHEMBL1781971

>  <bao_format>  (516) 
BAO_0000357

>  <data_validity_description>  (516) 
None

>  <activity_id>  (516) 
6219763

>  <standard_type>  (516) 
IC50

>  <target_chembl_id>  (516) 
CHEMBL1862

>  <data_validity_comment>  (516) 
None

>  <published_value>  (516) 
18

>  <document_year>  (516) 
2011

>  <target_pref_name>  (516) 
Tyrosine-protein kinase ABL

>  <assay_chembl_id>  (516) 
CHEMBL1787640

>  <standard_relation>  (516) 
=

>  <assay_description>  (516) 
Inhibition of wild type human ABL using [EAIYAAPFAKKK] peptide substrate after 1 hr by TR-FRET assay

>  <published_relation>  (516) 
=

>  <standard_value>  (516) 
18

>  <qudt_units>  (516) 
http://www.openphacts.org/units/Nanomolar

>  <target_tax_id>  (516) 
9606

>  <bao_label>  (516) 
single protein format

>  <published_units>  (516) 
nM

>  <pchembl_value>  (516) 
7.75

>  <published_type>  (516) 
IC50

>  <activity_comment>  (516) 
None

$$$$

     RDKit          

 36 39  0  0  0  0  0  0  0  0999 V2000
    0.0000    0.0000    0.0000 C   0  0  0  0  0  0  0  0  0  0  0  0
    0.0000    0.0000    0.0000 N   0  0  0  0  0  0  0  0  0  0  0  0
    0.0000    0.0000    0.0000 C   0  0  0  0  0  0  0  0  0  0  0  0
    0.0000    0.0000    0.0000 C   0  0  0  0  0  0  0  0  0  0  0  0
    0.0000    0.0000    0.0000 N   0  0  0  0  0  0  0  0  0  0  0  0
    0.0000    0.0000    0.0000 C   0  0  0  0  0  0  0  0  0  0  0  0
    0.0000    0.0000    0.0000 C   0  0  0  0  0  0  0  0  0  0  0  0
    0.0000    0.0000    0.0000 C   0  0  0  0  0  0  0  0  0  0  0  0
    0.0000    0.0000    0.0000 C   0  0  0  0  0  0  0  0  0  0  0  0
    0.0000    0.0000    0.0000 C   0  0  0  0  0  0  0  0  0  0  0  0
    0.0000    0.0000    0.0000 N   0  0  0  0  0  0  0  0  0  0  0  0
    0.0000    0.0000    0.0000 C   0  0  0  0  0  0  0  0  0  0  0  0
    0.0000    0.0000    0.0000 O   0  0  0  0  0  0  0  0  0  0  0  0
    0.0000    0.0000    0.0000 C   0  0  0  0  0  0  0  0  0  0  0  0
    0.0000    0.0000    0.0000 C   0  0  0  0  0  0  0  0  0  0  0  0
    0.0000    0.0000    0.0000 C   0  0  0  0  0  0  0  0  0  0  0  0
    0.0000    0.0000    0.0000 C   0  0  0  0  0  0  0  0  0  0  0  0
    0.0000    0.0000    0.0000 C   0  0  0  0  0  0  0  0  0  0  0  0
    0.0000    0.0000    0.0000 C   0  0  0  0  0  0  0  0  0  0  0  0
    0.0000    0.0000    0.0000 C   0  0  0  0  0  0  0  0  0  0  0  0
    0.0000    0.0000    0.0000 C   0  0  0  0  0  0  0  0  0  0  0  0
    0.0000    0.0000    0.0000 C   0  0  0  0  0  0  0  0  0  0  0  0
    0.0000    0.0000    0.0000 C   0  0  0  0  0  0  0  0  0  0  0  0
    0.0000    0.0000    0.0000 C   0  0  0  0  0  0  0  0  0  0  0  0
    0.0000    0.0000    0.0000 N   0  0  0  0  0  0  0  0  0  0  0  0
    0.0000    0.0000    0.0000 C   0  0  0  0  0  0  0  0  0  0  0  0
    0.0000    0.0000    0.0000 N   0  0  0  0  0  0  0  0  0  0  0  0
    0.0000    0.0000    0.0000 C   0  0  0  0  0  0  0  0  0  0  0  0
    0.0000    0.0000    0.0000 C   0  0  0  0  0  0  0  0  0  0  0  0
    0.0000    0.0000    0.0000 C   0  0  0  0  0  0  0  0  0  0  0  0
    0.0000    0.0000    0.0000 C   0  0  0  0  0  0  0  0  0  0  0  0
    0.0000    0.0000    0.0000 F   0  0  0  0  0  0  0  0  0  0  0  0
    0.0000    0.0000    0.0000 F   0  0  0  0  0  0  0  0  0  0  0  0
    0.0000    0.0000    0.0000 F   0  0  0  0  0  0  0  0  0  0  0  0
    0.0000    0.0000    0.0000 C   0  0  0  0  0  0  0  0  0  0  0  0
    0.0000    0.0000    0.0000 C   0  0  0  0  0  0  0  0  0  0  0  0
  1  2  1  0
  2  3  1  0
  3  4  1  0
  4  5  1  0
  5  6  1  0
  6  7  1  0
  7  8  2  0
  8  9  1  0
  9 10  2  0
 10 11  1  0
 11 12  1  0
 12 13  2  0
 12 14  1  0
 14 15  2  0
 15 16  1  0
 16 17  2  0
 17 18  1  0
 17 19  1  0
 19 20  2  0
 19 21  1  0
 21 22  3  0
 22 23  1  0
 23 24  2  0
 24 25  1  0
 25 26  2  0
 26 27  1  0
 27 28  2  0
 10 29  1  0
 29 30  2  0
 30 31  1  0
 31 32  1  0
 31 33  1  0
 31 34  1  0
  5 35  1  0
 35 36  1  0
 36  2  1  0
 30  7  1  0
 20 14  1  0
 28 23  1  0
M  END
>  <pIC50>  (517) 
7.2

>  <ChEMBL_ID>  (517) 
CHEMBL1784626

>  <document_journal>  (517) 
Bioorg. Med. Chem. Lett.

>  <bao_endpoint>  (517) 
BAO_0000190

>  <potential_duplicate>  (517) 
False

>  <uo_units>  (517) 
UO_0000065

>  <canonical_smiles>  (517) 
CN1CCN(Cc2ccc(NC(=O)c3ccc(C)c(c3)C#Cc4cncnc4)cc2C(F)(F)F)CC1

>  <parent_molecule_chembl_id>  (517) 
CHEMBL1784626

>  <assay_type>  (517) 
B

>  <src_id>  (517) 
1

>  <ligand_efficiency>  (517) 
{u'le': u'0.27', u'bei': u'14.59', u'sei': u'11.74', u'lle': u'2.8'}

>  <standard_flag>  (517) 
True

>  <molecule_chembl_id>  (517) 
CHEMBL1784626

>  <target_organism>  (517) 
Homo sapiens

>  <standard_units>  (517) 
nM

>  <record_id>  (517) 
1429589

>  <document_chembl_id>  (517) 
CHEMBL1781971

>  <bao_format>  (517) 
BAO_0000357

>  <data_validity_description>  (517) 
None

>  <activity_id>  (517) 
6219764

>  <standard_type>  (517) 
IC50

>  <target_chembl_id>  (517) 
CHEMBL1862

>  <data_validity_comment>  (517) 
None

>  <published_value>  (517) 
62.7

>  <document_year>  (517) 
2011

>  <target_pref_name>  (517) 
Tyrosine-protein kinase ABL

>  <assay_chembl_id>  (517) 
CHEMBL1787640

>  <standard_relation>  (517) 
=

>  <assay_description>  (517) 
Inhibition of wild type human ABL using [EAIYAAPFAKKK] peptide substrate after 1 hr by TR-FRET assay

>  <published_relation>  (517) 
=

>  <standard_value>  (517) 
62.7

>  <qudt_units>  (517) 
http://www.openphacts.org/units/Nanomolar

>  <target_tax_id>  (517) 
9606

>  <bao_label>  (517) 
single protein format

>  <published_units>  (517) 
nM

>  <pchembl_value>  (517) 
7.2

>  <published_type>  (517) 
IC50

>  <activity_comment>  (517) 
None

$$$$

     RDKit          

 36 39  0  0  0  0  0  0  0  0999 V2000
    0.0000    0.0000    0.0000 C   0  0  0  0  0  0  0  0  0  0  0  0
    0.0000    0.0000    0.0000 N   0  0  0  0  0  0  0  0  0  0  0  0
    0.0000    0.0000    0.0000 C   0  0  0  0  0  0  0  0  0  0  0  0
    0.0000    0.0000    0.0000 C   0  0  0  0  0  0  0  0  0  0  0  0
    0.0000    0.0000    0.0000 N   0  0  0  0  0  0  0  0  0  0  0  0
    0.0000    0.0000    0.0000 C   0  0  0  0  0  0  0  0  0  0  0  0
    0.0000    0.0000    0.0000 C   0  0  0  0  0  0  0  0  0  0  0  0
    0.0000    0.0000    0.0000 C   0  0  0  0  0  0  0  0  0  0  0  0
    0.0000    0.0000    0.0000 C   0  0  0  0  0  0  0  0  0  0  0  0
    0.0000    0.0000    0.0000 C   0  0  0  0  0  0  0  0  0  0  0  0
    0.0000    0.0000    0.0000 N   0  0  0  0  0  0  0  0  0  0  0  0
    0.0000    0.0000    0.0000 C   0  0  0  0  0  0  0  0  0  0  0  0
    0.0000    0.0000    0.0000 O   0  0  0  0  0  0  0  0  0  0  0  0
    0.0000    0.0000    0.0000 C   0  0  0  0  0  0  0  0  0  0  0  0
    0.0000    0.0000    0.0000 C   0  0  0  0  0  0  0  0  0  0  0  0
    0.0000    0.0000    0.0000 C   0  0  0  0  0  0  0  0  0  0  0  0
    0.0000    0.0000    0.0000 C   0  0  0  0  0  0  0  0  0  0  0  0
    0.0000    0.0000    0.0000 C   0  0  0  0  0  0  0  0  0  0  0  0
    0.0000    0.0000    0.0000 C   0  0  0  0  0  0  0  0  0  0  0  0
    0.0000    0.0000    0.0000 C   0  0  0  0  0  0  0  0  0  0  0  0
    0.0000    0.0000    0.0000 C   0  0  0  0  0  0  0  0  0  0  0  0
    0.0000    0.0000    0.0000 C   0  0  0  0  0  0  0  0  0  0  0  0
    0.0000    0.0000    0.0000 C   0  0  0  0  0  0  0  0  0  0  0  0
    0.0000    0.0000    0.0000 C   0  0  0  0  0  0  0  0  0  0  0  0
    0.0000    0.0000    0.0000 C   0  0  0  0  0  0  0  0  0  0  0  0
    0.0000    0.0000    0.0000 C   0  0  0  0  0  0  0  0  0  0  0  0
    0.0000    0.0000    0.0000 N   0  0  0  0  0  0  0  0  0  0  0  0
    0.0000    0.0000    0.0000 C   0  0  0  0  0  0  0  0  0  0  0  0
    0.0000    0.0000    0.0000 C   0  0  0  0  0  0  0  0  0  0  0  0
    0.0000    0.0000    0.0000 C   0  0  0  0  0  0  0  0  0  0  0  0
    0.0000    0.0000    0.0000 C   0  0  0  0  0  0  0  0  0  0  0  0
    0.0000    0.0000    0.0000 F   0  0  0  0  0  0  0  0  0  0  0  0
    0.0000    0.0000    0.0000 F   0  0  0  0  0  0  0  0  0  0  0  0
    0.0000    0.0000    0.0000 F   0  0  0  0  0  0  0  0  0  0  0  0
    0.0000    0.0000    0.0000 C   0  0  0  0  0  0  0  0  0  0  0  0
    0.0000    0.0000    0.0000 C   0  0  0  0  0  0  0  0  0  0  0  0
  1  2  1  0
  2  3  1  0
  3  4  1  0
  4  5  1  0
  5  6  1  0
  6  7  1  0
  7  8  2  0
  8  9  1  0
  9 10  2  0
 10 11  1  0
 11 12  1  0
 12 13  2  0
 12 14  1  0
 14 15  2  0
 15 16  1  0
 16 17  2  0
 17 18  1  0
 17 19  1  0
 19 20  2  0
 19 21  1  0
 21 22  3  0
 22 23  1  0
 23 24  2  0
 24 25  1  0
 25 26  2  0
 26 27  1  0
 27 28  2  0
 10 29  1  0
 29 30  2  0
 30 31  1  0
 31 32  1  0
 31 33  1  0
 31 34  1  0
  5 35  1  0
 35 36  1  0
 36  2  1  0
 30  7  1  0
 20 14  1  0
 28 23  1  0
M  END
>  <pIC50>  (518) 
7.4

>  <ChEMBL_ID>  (518) 
CHEMBL1784625

>  <document_journal>  (518) 
Bioorg. Med. Chem. Lett.

>  <bao_endpoint>  (518) 
BAO_0000190

>  <potential_duplicate>  (518) 
False

>  <uo_units>  (518) 
UO_0000065

>  <canonical_smiles>  (518) 
CN1CCN(Cc2ccc(NC(=O)c3ccc(C)c(c3)C#Cc4cccnc4)cc2C(F)(F)F)CC1

>  <parent_molecule_chembl_id>  (518) 
CHEMBL1784625

>  <assay_type>  (518) 
B

>  <src_id>  (518) 
1

>  <ligand_efficiency>  (518) 
{u'le': u'0.28', u'bei': u'15.01', u'sei': u'15.26', u'lle': u'2.36'}

>  <standard_flag>  (518) 
True

>  <molecule_chembl_id>  (518) 
CHEMBL1784625

>  <target_organism>  (518) 
Homo sapiens

>  <standard_units>  (518) 
nM

>  <record_id>  (518) 
1429588

>  <document_chembl_id>  (518) 
CHEMBL1781971

>  <bao_format>  (518) 
BAO_0000357

>  <data_validity_description>  (518) 
None

>  <activity_id>  (518) 
6219765

>  <standard_type>  (518) 
IC50

>  <target_chembl_id>  (518) 
CHEMBL1862

>  <data_validity_comment>  (518) 
None

>  <published_value>  (518) 
40.3

>  <document_year>  (518) 
2011

>  <target_pref_name>  (518) 
Tyrosine-protein kinase ABL

>  <assay_chembl_id>  (518) 
CHEMBL1787640

>  <standard_relation>  (518) 
=

>  <assay_description>  (518) 
Inhibition of wild type human ABL using [EAIYAAPFAKKK] peptide substrate after 1 hr by TR-FRET assay

>  <published_relation>  (518) 
=

>  <standard_value>  (518) 
40.3

>  <qudt_units>  (518) 
http://www.openphacts.org/units/Nanomolar

>  <target_tax_id>  (518) 
9606

>  <bao_label>  (518) 
single protein format

>  <published_units>  (518) 
nM

>  <pchembl_value>  (518) 
7.4

>  <published_type>  (518) 
IC50

>  <activity_comment>  (518) 
None

$$$$

     RDKit          

 35 39  0  0  0  0  0  0  0  0999 V2000
    0.0000    0.0000    0.0000 C   0  0  0  0  0  0  0  0  0  0  0  0
    0.0000    0.0000    0.0000 N   0  0  0  0  0  0  0  0  0  0  0  0
    0.0000    0.0000    0.0000 C   0  0  0  0  0  0  0  0  0  0  0  0
    0.0000    0.0000    0.0000 C   0  0  0  0  0  0  0  0  0  0  0  0
    0.0000    0.0000    0.0000 C   0  0  0  0  0  0  0  0  0  0  0  0
    0.0000    0.0000    0.0000 O   0  0  0  0  0  0  0  0  0  0  0  0
    0.0000    0.0000    0.0000 C   0  0  0  0  0  0  0  0  0  0  0  0
    0.0000    0.0000    0.0000 C   0  0  0  0  0  0  0  0  0  0  0  0
    0.0000    0.0000    0.0000 O   0  0  0  0  0  0  0  0  0  0  0  0
    0.0000    0.0000    0.0000 S   0  0  0  0  0  0  0  0  0  0  0  0
    0.0000    0.0000    0.0000 O   0  0  0  0  0  0  0  0  0  0  0  0
    0.0000    0.0000    0.0000 O   0  0  0  0  0  0  0  0  0  0  0  0
    0.0000    0.0000    0.0000 N   0  0  0  0  0  0  0  0  0  0  0  0
    0.0000    0.0000    0.0000 C   0  0  0  0  0  0  0  0  0  0  0  0
    0.0000    0.0000    0.0000 C   0  0  0  0  0  0  0  0  0  0  0  0
    0.0000    0.0000    0.0000 C   0  0  0  0  0  0  0  0  0  0  0  0
    0.0000    0.0000    0.0000 C   0  0  0  0  0  0  0  0  0  0  0  0
    0.0000    0.0000    0.0000 C   0  0  0  0  0  0  0  0  0  0  0  0
    0.0000    0.0000    0.0000 C   0  0  0  0  0  0  0  0  0  0  0  0
    0.0000    0.0000    0.0000 C   0  0  0  0  0  0  0  0  0  0  0  0
    0.0000    0.0000    0.0000 N   0  0  0  0  0  0  0  0  0  0  0  0
    0.0000    0.0000    0.0000 C   0  0  0  0  0  0  0  0  0  0  0  0
    0.0000    0.0000    0.0000 C   0  0  0  0  0  0  0  0  0  0  0  0
    0.0000    0.0000    0.0000 C   0  0  0  0  0  0  0  0  0  0  0  0
    0.0000    0.0000    0.0000 C   0  0  0  0  0  0  0  0  0  0  0  0
    0.0000    0.0000    0.0000 C   0  0  0  0  0  0  0  0  0  0  0  0
    0.0000    0.0000    0.0000 O   0  0  0  0  0  0  0  0  0  0  0  0
    0.0000    0.0000    0.0000 C   0  0  0  0  0  0  0  0  0  0  0  0
    0.0000    0.0000    0.0000 C   0  0  0  0  0  0  0  0  0  0  0  0
    0.0000    0.0000    0.0000 C   0  0  0  0  0  0  0  0  0  0  0  0
    0.0000    0.0000    0.0000 C   0  0  0  0  0  0  0  0  0  0  0  0
    0.0000    0.0000    0.0000 N   0  0  0  0  0  0  0  0  0  0  0  0
    0.0000    0.0000    0.0000 N   0  0  0  0  0  0  0  0  0  0  0  0
    0.0000    0.0000    0.0000 C   0  0  0  0  0  0  0  0  0  0  0  0
    0.0000    0.0000    0.0000 C   0  0  0  0  0  0  0  0  0  0  0  0
  1  2  1  0
  2  3  1  0
  3  4  1  0
  4  5  1  0
  5  6  1  0
  6  7  1  0
  7  8  1  0
  8  9  1  0
  2 10  1  0
 10 11  2  0
 10 12  2  0
 10 13  1  0
 13 14  1  0
 14 15  2  0
 15 16  1  0
 16 17  2  0
 17 18  1  0
 18 19  2  0
 19 20  1  0
 20 21  2  0
 21 22  1  0
 22 23  2  0
 23 24  1  0
 24 25  2  0
 25 26  1  0
 26 27  2  0
 26 28  1  0
 28 29  2  0
 23 30  1  0
 30 31  1  0
 31 32  2  0
 32 33  1  0
 33 34  1  0
 33 35  1  0
  9  4  1  0
 29 14  1  0
 28 17  1  0
 25 20  1  0
 35 30  2  0
M  END
>  <pIC50>  (519) 
5.11

>  <ChEMBL_ID>  (519) 
CHEMBL1822792

>  <document_journal>  (519) 
J. Med. Chem.

>  <bao_endpoint>  (519) 
BAO_0000190

>  <potential_duplicate>  (519) 
False

>  <uo_units>  (519) 
UO_0000065

>  <canonical_smiles>  (519) 
CN(C[C@@H]1COCCO1)S(=O)(=O)Nc2ccc3C=Cc4ncc(cc4C(=O)c3c2)c5cnn(C)c5

>  <parent_molecule_chembl_id>  (519) 
CHEMBL1822792

>  <assay_type>  (519) 
B

>  <src_id>  (519) 
1

>  <ligand_efficiency>  (519) 
{u'le': u'0.2', u'bei': u'10.31', u'sei': u'4.12', u'lle': u'4.19'}

>  <standard_flag>  (519) 
True

>  <molecule_chembl_id>  (519) 
CHEMBL1822792

>  <target_organism>  (519) 
Homo sapiens

>  <standard_units>  (519) 
nM

>  <record_id>  (519) 
1442459

>  <document_chembl_id>  (519) 
CHEMBL1800066

>  <bao_format>  (519) 
BAO_0000357

>  <data_validity_description>  (519) 
None

>  <activity_id>  (519) 
6281551

>  <standard_type>  (519) 
IC50

>  <target_chembl_id>  (519) 
CHEMBL1862

>  <data_validity_comment>  (519) 
None

>  <published_value>  (519) 
7800

>  <document_year>  (519) 
2011

>  <target_pref_name>  (519) 
Tyrosine-protein kinase ABL

>  <assay_chembl_id>  (519) 
CHEMBL1804350

>  <standard_relation>  (519) 
=

>  <assay_description>  (519) 
Inhibition of human Abl

>  <published_relation>  (519) 
=

>  <standard_value>  (519) 
7800

>  <qudt_units>  (519) 
http://www.openphacts.org/units/Nanomolar

>  <target_tax_id>  (519) 
9606

>  <bao_label>  (519) 
single protein format

>  <published_units>  (519) 
nM

>  <pchembl_value>  (519) 
5.11

>  <published_type>  (519) 
IC50

>  <activity_comment>  (519) 
None

$$$$

     RDKit          

 25 28  0  0  0  0  0  0  0  0999 V2000
    0.0000    0.0000    0.0000 C   0  0  0  0  0  0  0  0  0  0  0  0
    0.0000    0.0000    0.0000 N   0  0  0  0  0  0  0  0  0  0  0  0
    0.0000    0.0000    0.0000 C   0  0  0  0  0  0  0  0  0  0  0  0
    0.0000    0.0000    0.0000 C   0  0  0  0  0  0  0  0  0  0  0  0
    0.0000    0.0000    0.0000 N   0  0  0  0  0  0  0  0  0  0  0  0
    0.0000    0.0000    0.0000 C   0  0  0  0  0  0  0  0  0  0  0  0
    0.0000    0.0000    0.0000 C   0  0  0  0  0  0  0  0  0  0  0  0
    0.0000    0.0000    0.0000 C   0  0  0  0  0  0  0  0  0  0  0  0
    0.0000    0.0000    0.0000 C   0  0  0  0  0  0  0  0  0  0  0  0
    0.0000    0.0000    0.0000 C   0  0  0  0  0  0  0  0  0  0  0  0
    0.0000    0.0000    0.0000 C   0  0  0  0  0  0  0  0  0  0  0  0
    0.0000    0.0000    0.0000 C   0  0  0  0  0  0  0  0  0  0  0  0
    0.0000    0.0000    0.0000 C   0  0  0  0  0  0  0  0  0  0  0  0
    0.0000    0.0000    0.0000 C   0  0  0  0  0  0  0  0  0  0  0  0
    0.0000    0.0000    0.0000 C   0  0  0  0  0  0  0  0  0  0  0  0
    0.0000    0.0000    0.0000 C   0  0  0  0  0  0  0  0  0  0  0  0
    0.0000    0.0000    0.0000 C   0  0  0  0  0  0  0  0  0  0  0  0
    0.0000    0.0000    0.0000 C   0  0  0  0  0  0  0  0  0  0  0  0
    0.0000    0.0000    0.0000 O   0  0  0  0  0  0  0  0  0  0  0  0
    0.0000    0.0000    0.0000 N   0  0  0  0  0  0  0  0  0  0  0  0
    0.0000    0.0000    0.0000 C   0  0  0  0  0  0  0  0  0  0  0  0
    0.0000    0.0000    0.0000 N   0  0  0  0  0  0  0  0  0  0  0  0
    0.0000    0.0000    0.0000 N   0  0  0  0  0  0  0  0  0  0  0  0
    0.0000    0.0000    0.0000 N   0  0  0  0  0  0  0  0  0  0  0  0
    0.0000    0.0000    0.0000 C   0  0  0  0  0  0  0  0  0  0  0  0
  1  2  1  0
  2  3  1  0
  3  4  1  0
  4  5  1  0
  5  6  1  0
  6  7  1  0
  5  8  1  0
  8  9  2  0
  9 10  1  0
 10 11  2  0
 11 12  1  0
 12 13  2  0
 11 14  1  0
 14 15  2  0
 15 16  1  0
 16 17  2  0
 17 18  1  0
 18 19  2  0
 18 20  1  0
 17 21  1  0
 21 22  1  0
 21 23  2  0
 23 24  1  0
 24 25  1  0
  7  2  1  0
 13  8  1  0
 20 14  1  0
 24 16  1  0
M  END
>  <pIC50>  (520) 
5.11

>  <ChEMBL_ID>  (520) 
CHEMBL1813625

>  <document_journal>  (520) 
Bioorg. Med. Chem.

>  <bao_endpoint>  (520) 
BAO_0000190

>  <potential_duplicate>  (520) 
False

>  <uo_units>  (520) 
UO_0000065

>  <canonical_smiles>  (520) 
CN1CCN(CC1)c2ccc(cc2)C3=Cc4c(C(=O)N3)c(N)nn4C

>  <parent_molecule_chembl_id>  (520) 
CHEMBL1813625

>  <assay_type>  (520) 
B

>  <src_id>  (520) 
1

>  <ligand_efficiency>  (520) 
{u'le': u'0.28', u'bei': u'15.09', u'sei': u'6.43', u'lle': u'3.78'}

>  <standard_flag>  (520) 
True

>  <molecule_chembl_id>  (520) 
CHEMBL1813625

>  <target_organism>  (520) 
Homo sapiens

>  <standard_units>  (520) 
nM

>  <record_id>  (520) 
1448061

>  <document_chembl_id>  (520) 
CHEMBL1811853

>  <bao_format>  (520) 
BAO_0000357

>  <data_validity_description>  (520) 
None

>  <activity_id>  (520) 
6318847

>  <standard_type>  (520) 
IC50

>  <target_chembl_id>  (520) 
CHEMBL1862

>  <data_validity_comment>  (520) 
None

>  <published_value>  (520) 
7.8

>  <document_year>  (520) 
2011

>  <target_pref_name>  (520) 
Tyrosine-protein kinase ABL

>  <assay_chembl_id>  (520) 
CHEMBL1815745

>  <standard_relation>  (520) 
=

>  <assay_description>  (520) 
Inhibition of ABL by microfluidic mobility shift assay

>  <published_relation>  (520) 
=

>  <standard_value>  (520) 
7800

>  <qudt_units>  (520) 
http://www.openphacts.org/units/Nanomolar

>  <target_tax_id>  (520) 
9606

>  <bao_label>  (520) 
single protein format

>  <published_units>  (520) 
uM

>  <pchembl_value>  (520) 
5.11

>  <published_type>  (520) 
IC50

>  <activity_comment>  (520) 
None

$$$$

     RDKit          

 23 26  0  0  0  0  0  0  0  0999 V2000
    0.0000    0.0000    0.0000 N   0  0  0  0  0  0  0  0  0  0  0  0
    0.0000    0.0000    0.0000 C   0  0  0  0  0  0  0  0  0  0  0  0
    0.0000    0.0000    0.0000 C   0  0  0  0  0  0  0  0  0  0  0  0
    0.0000    0.0000    0.0000 C   0  0  0  0  0  0  0  0  0  0  0  0
    0.0000    0.0000    0.0000 O   0  0  0  0  0  0  0  0  0  0  0  0
    0.0000    0.0000    0.0000 N   0  0  0  0  0  0  0  0  0  0  0  0
    0.0000    0.0000    0.0000 C   0  0  0  0  0  0  0  0  0  0  0  0
    0.0000    0.0000    0.0000 C   0  0  0  0  0  0  0  0  0  0  0  0
    0.0000    0.0000    0.0000 C   0  0  0  0  0  0  0  0  0  0  0  0
    0.0000    0.0000    0.0000 N   0  0  0  0  0  0  0  0  0  0  0  0
    0.0000    0.0000    0.0000 N   0  0  0  0  0  0  0  0  0  0  0  0
    0.0000    0.0000    0.0000 C   0  0  0  0  0  0  0  0  0  0  0  0
    0.0000    0.0000    0.0000 C   0  0  0  0  0  0  0  0  0  0  0  0
    0.0000    0.0000    0.0000 C   0  0  0  0  0  0  0  0  0  0  0  0
    0.0000    0.0000    0.0000 C   0  0  0  0  0  0  0  0  0  0  0  0
    0.0000    0.0000    0.0000 C   0  0  0  0  0  0  0  0  0  0  0  0
    0.0000    0.0000    0.0000 C   0  0  0  0  0  0  0  0  0  0  0  0
    0.0000    0.0000    0.0000 C   0  0  0  0  0  0  0  0  0  0  0  0
    0.0000    0.0000    0.0000 C   0  0  0  0  0  0  0  0  0  0  0  0
    0.0000    0.0000    0.0000 C   0  0  0  0  0  0  0  0  0  0  0  0
    0.0000    0.0000    0.0000 C   0  0  0  0  0  0  0  0  0  0  0  0
    0.0000    0.0000    0.0000 C   0  0  0  0  0  0  0  0  0  0  0  0
    0.0000    0.0000    0.0000 C   0  0  0  0  0  0  0  0  0  0  0  0
  1  2  1  0
  2  3  2  0
  3  4  1  0
  4  5  2  0
  4  6  1  0
  6  7  1  0
  7  8  2  0
  8  9  1  0
  9 10  2  0
 10 11  1  0
 11 12  1  0
 12 13  2  0
 13 14  1  0
 14 15  2  0
 15 16  1  0
 16 17  2  0
  7 18  1  0
 18 19  2  0
 19 20  1  0
 20 21  2  0
 21 22  1  0
 22 23  2  0
 11  2  1  0
  9  3  1  0
 17 12  1  0
 23 18  1  0
M  END
>  <pIC50>  (521) 
5.82

>  <ChEMBL_ID>  (521) 
CHEMBL1813790

>  <document_journal>  (521) 
Bioorg. Med. Chem.

>  <bao_endpoint>  (521) 
BAO_0000190

>  <potential_duplicate>  (521) 
False

>  <uo_units>  (521) 
UO_0000065

>  <canonical_smiles>  (521) 
Nc1c2C(=O)NC(=Cc2nn1c3ccccc3)c4ccccc4

>  <parent_molecule_chembl_id>  (521) 
CHEMBL1813790

>  <assay_type>  (521) 
B

>  <src_id>  (521) 
1

>  <ligand_efficiency>  (521) 
{u'le': u'0.35', u'bei': u'19.26', u'sei': u'7.98', u'lle': u'3.31'}

>  <standard_flag>  (521) 
True

>  <molecule_chembl_id>  (521) 
CHEMBL1813790

>  <target_organism>  (521) 
Homo sapiens

>  <standard_units>  (521) 
nM

>  <record_id>  (521) 
1448251

>  <document_chembl_id>  (521) 
CHEMBL1811853

>  <bao_format>  (521) 
BAO_0000357

>  <data_validity_description>  (521) 
None

>  <activity_id>  (521) 
6318848

>  <standard_type>  (521) 
IC50

>  <target_chembl_id>  (521) 
CHEMBL1862

>  <data_validity_comment>  (521) 
None

>  <published_value>  (521) 
1.5

>  <document_year>  (521) 
2011

>  <target_pref_name>  (521) 
Tyrosine-protein kinase ABL

>  <assay_chembl_id>  (521) 
CHEMBL1815745

>  <standard_relation>  (521) 
=

>  <assay_description>  (521) 
Inhibition of ABL by microfluidic mobility shift assay

>  <published_relation>  (521) 
=

>  <standard_value>  (521) 
1500

>  <qudt_units>  (521) 
http://www.openphacts.org/units/Nanomolar

>  <target_tax_id>  (521) 
9606

>  <bao_label>  (521) 
single protein format

>  <published_units>  (521) 
uM

>  <pchembl_value>  (521) 
5.82

>  <published_type>  (521) 
IC50

>  <activity_comment>  (521) 
None

$$$$

     RDKit          

 38 41  0  0  0  0  0  0  0  0999 V2000
    0.0000    0.0000    0.0000 C   0  0  0  0  0  0  0  0  0  0  0  0
    0.0000    0.0000    0.0000 C   0  0  0  0  0  0  0  0  0  0  0  0
    0.0000    0.0000    0.0000 N   0  0  0  0  0  0  0  0  0  0  0  0
    0.0000    0.0000    0.0000 C   0  0  0  0  0  0  0  0  0  0  0  0
    0.0000    0.0000    0.0000 C   0  0  0  0  0  0  0  0  0  0  0  0
    0.0000    0.0000    0.0000 N   0  0  0  0  0  0  0  0  0  0  0  0
    0.0000    0.0000    0.0000 C   0  0  0  0  0  0  0  0  0  0  0  0
    0.0000    0.0000    0.0000 C   0  0  0  0  0  0  0  0  0  0  0  0
    0.0000    0.0000    0.0000 C   0  0  0  0  0  0  0  0  0  0  0  0
    0.0000    0.0000    0.0000 C   0  0  0  0  0  0  0  0  0  0  0  0
    0.0000    0.0000    0.0000 C   0  0  0  0  0  0  0  0  0  0  0  0
    0.0000    0.0000    0.0000 C   0  0  0  0  0  0  0  0  0  0  0  0
    0.0000    0.0000    0.0000 N   0  0  0  0  0  0  0  0  0  0  0  0
    0.0000    0.0000    0.0000 C   0  0  0  0  0  0  0  0  0  0  0  0
    0.0000    0.0000    0.0000 C   0  0  0  0  0  0  0  0  0  0  0  0
    0.0000    0.0000    0.0000 C   0  0  0  0  0  0  0  0  0  0  0  0
    0.0000    0.0000    0.0000 N   0  0  0  0  0  0  0  0  0  0  0  0
    0.0000    0.0000    0.0000 C   0  0  0  0  0  0  0  0  0  0  0  0
    0.0000    0.0000    0.0000 N   0  0  0  0  0  0  0  0  0  0  0  0
    0.0000    0.0000    0.0000 N   0  0  0  0  0  0  0  0  0  0  0  0
    0.0000    0.0000    0.0000 C   0  0  0  0  0  0  0  0  0  0  0  0
    0.0000    0.0000    0.0000 C   0  0  0  0  0  0  0  0  0  0  0  0
    0.0000    0.0000    0.0000 O   0  0  0  0  0  0  0  0  0  0  0  0
    0.0000    0.0000    0.0000 N   0  0  0  0  0  0  0  0  0  0  0  0
    0.0000    0.0000    0.0000 C   0  0  0  0  0  0  0  0  0  0  0  0
    0.0000    0.0000    0.0000 C   0  0  0  0  0  0  0  0  0  0  0  0
    0.0000    0.0000    0.0000 Cl  0  0  0  0  0  0  0  0  0  0  0  0
    0.0000    0.0000    0.0000 C   0  0  0  0  0  0  0  0  0  0  0  0
    0.0000    0.0000    0.0000 O   0  0  0  0  0  0  0  0  0  0  0  0
    0.0000    0.0000    0.0000 C   0  0  0  0  0  0  0  0  0  0  0  0
    0.0000    0.0000    0.0000 C   0  0  0  0  0  0  0  0  0  0  0  0
    0.0000    0.0000    0.0000 C   0  0  0  0  0  0  0  0  0  0  0  0
    0.0000    0.0000    0.0000 O   0  0  0  0  0  0  0  0  0  0  0  0
    0.0000    0.0000    0.0000 C   0  0  0  0  0  0  0  0  0  0  0  0
    0.0000    0.0000    0.0000 C   0  0  0  0  0  0  0  0  0  0  0  0
    0.0000    0.0000    0.0000 Cl  0  0  0  0  0  0  0  0  0  0  0  0
    0.0000    0.0000    0.0000 C   0  0  0  0  0  0  0  0  0  0  0  0
    0.0000    0.0000    0.0000 C   0  0  0  0  0  0  0  0  0  0  0  0
  1  2  1  0
  2  3  1  0
  3  4  1  0
  4  5  1  0
  5  6  1  0
  6  7  1  0
  7  8  1  0
  6  9  1  0
  9 10  2  0
 10 11  1  0
 11 12  2  0
 12 13  1  0
 13 14  1  0
 14 15  2  0
 15 16  1  0
 16 17  2  0
 17 18  1  0
 18 19  2  0
 16 20  1  0
 20 21  1  0
 20 22  1  0
 22 23  2  0
 22 24  1  0
 24 25  1  0
 25 26  2  0
 26 27  1  0
 26 28  1  0
 28 29  1  0
 29 30  1  0
 28 31  2  0
 31 32  1  0
 32 33  1  0
 33 34  1  0
 32 35  2  0
 35 36  1  0
 12 37  1  0
 37 38  2  0
  8  3  1  0
 38  9  1  0
 19 14  1  0
 35 25  1  0
M  END
>  <pIC50>  (522) 
5.64

>  <ChEMBL_ID>  (522) 
CHEMBL1834657

>  <document_journal>  (522) 
J. Med. Chem.

>  <bao_endpoint>  (522) 
BAO_0000190

>  <potential_duplicate>  (522) 
False

>  <uo_units>  (522) 
UO_0000065

>  <canonical_smiles>  (522) 
CCN1CCN(CC1)c2ccc(Nc3cc(ncn3)N(C)C(=O)Nc4c(Cl)c(OC)cc(OC)c4Cl)cc2.OP(=O)(O)O

>  <parent_molecule_chembl_id>  (522) 
CHEMBL1852688

>  <assay_type>  (522) 
B

>  <src_id>  (522) 
1

>  <ligand_efficiency>  (522) 
{u'le': u'0.2', u'bei': u'10.06', u'sei': u'5.93', u'lle': u'0.3'}

>  <standard_flag>  (522) 
True

>  <molecule_chembl_id>  (522) 
CHEMBL1834657

>  <target_organism>  (522) 
Homo sapiens

>  <standard_units>  (522) 
nM

>  <record_id>  (522) 
1460724

>  <document_chembl_id>  (522) 
CHEMBL1833940

>  <bao_format>  (522) 
BAO_0000357

>  <data_validity_description>  (522) 
None

>  <activity_id>  (522) 
6386459

>  <standard_type>  (522) 
IC50

>  <target_chembl_id>  (522) 
CHEMBL1862

>  <data_validity_comment>  (522) 
None

>  <published_value>  (522) 
2.3

>  <document_year>  (522) 
2011

>  <target_pref_name>  (522) 
Tyrosine-protein kinase ABL

>  <assay_chembl_id>  (522) 
CHEMBL1837849

>  <standard_relation>  (522) 
=

>  <assay_description>  (522) 
Inhibition of recombinant ABL kinase

>  <published_relation>  (522) 
=

>  <standard_value>  (522) 
2300

>  <qudt_units>  (522) 
http://www.openphacts.org/units/Nanomolar

>  <target_tax_id>  (522) 
9606

>  <bao_label>  (522) 
single protein format

>  <published_units>  (522) 
uM

>  <pchembl_value>  (522) 
5.64

>  <published_type>  (522) 
IC50

>  <activity_comment>  (522) 
None

$$$$

     RDKit          

 32 35  0  0  0  0  0  0  0  0999 V2000
    0.0000    0.0000    0.0000 C   0  0  0  0  0  0  0  0  0  0  0  0
    0.0000    0.0000    0.0000 N   0  0  0  0  0  0  0  0  0  0  0  0
    0.0000    0.0000    0.0000 C   0  0  0  0  0  0  0  0  0  0  0  0
    0.0000    0.0000    0.0000 C   0  0  0  0  0  0  0  0  0  0  0  0
    0.0000    0.0000    0.0000 C   0  0  0  0  0  0  0  0  0  0  0  0
    0.0000    0.0000    0.0000 C   0  0  0  0  0  0  0  0  0  0  0  0
    0.0000    0.0000    0.0000 C   0  0  0  0  0  0  0  0  0  0  0  0
    0.0000    0.0000    0.0000 O   0  0  0  0  0  0  0  0  0  0  0  0
    0.0000    0.0000    0.0000 N   0  0  0  0  0  0  0  0  0  0  0  0
    0.0000    0.0000    0.0000 C   0  0  0  0  0  0  0  0  0  0  0  0
    0.0000    0.0000    0.0000 C   0  0  0  0  0  0  0  0  0  0  0  0
    0.0000    0.0000    0.0000 C   0  0  0  0  0  0  0  0  0  0  0  0
    0.0000    0.0000    0.0000 C   0  0  0  0  0  0  0  0  0  0  0  0
    0.0000    0.0000    0.0000 C   0  0  0  0  0  0  0  0  0  0  0  0
    0.0000    0.0000    0.0000 C   0  0  0  0  0  0  0  0  0  0  0  0
    0.0000    0.0000    0.0000 C   0  0  0  0  0  0  0  0  0  0  0  0
    0.0000    0.0000    0.0000 F   0  0  0  0  0  0  0  0  0  0  0  0
    0.0000    0.0000    0.0000 N   0  0  0  0  0  0  0  0  0  0  0  0
    0.0000    0.0000    0.0000 C   0  0  0  0  0  0  0  0  0  0  0  0
    0.0000    0.0000    0.0000 N   0  0  0  0  0  0  0  0  0  0  0  0
    0.0000    0.0000    0.0000 C   0  0  0  0  0  0  0  0  0  0  0  0
    0.0000    0.0000    0.0000 C   0  0  0  0  0  0  0  0  0  0  0  0
    0.0000    0.0000    0.0000 C   0  0  0  0  0  0  0  0  0  0  0  0
    0.0000    0.0000    0.0000 C   0  0  0  0  0  0  0  0  0  0  0  0
    0.0000    0.0000    0.0000 C   0  0  0  0  0  0  0  0  0  0  0  0
    0.0000    0.0000    0.0000 C   0  0  0  0  0  0  0  0  0  0  0  0
    0.0000    0.0000    0.0000 C   0  0  0  0  0  0  0  0  0  0  0  0
    0.0000    0.0000    0.0000 C   0  0  0  0  0  0  0  0  0  0  0  0
    0.0000    0.0000    0.0000 C   0  0  0  0  0  0  0  0  0  0  0  0
    0.0000    0.0000    0.0000 N   0  0  0  0  0  0  0  0  0  0  0  0
    0.0000    0.0000    0.0000 C   0  0  0  0  0  0  0  0  0  0  0  0
    0.0000    0.0000    0.0000 N   0  0  0  0  0  0  0  0  0  0  0  0
  1  2  1  0
  2  3  1  0
  2  4  1  0
  4  5  1  0
  5  6  2  0
  6  7  1  0
  7  8  2  0
  7  9  1  0
  9 10  1  0
  9 11  1  0
 11 12  2  0
 12 13  1  0
 13 14  2  0
 14 15  1  0
 15 16  2  0
 16 17  1  0
 14 18  1  0
 18 19  2  0
 19 20  1  0
 20 21  1  0
 21 22  2  0
 22 23  1  0
 23 24  2  0
 24 25  1  0
 25 26  2  0
 26 27  1  0
 19 28  1  0
 28 29  2  0
 29 30  1  0
 30 31  2  0
 31 32  1  0
 16 11  1  0
 32 13  1  0
 26 21  1  0
 32 28  1  0
M  END
>  <pIC50>  (523) 
6.96

>  <ChEMBL_ID>  (523) 
CHEMBL1916891

>  <document_journal>  (523) 
Bioorg. Med. Chem. Lett.

>  <bao_endpoint>  (523) 
BAO_0000190

>  <potential_duplicate>  (523) 
False

>  <uo_units>  (523) 
UO_0000065

>  <canonical_smiles>  (523) 
CN(C)C\C=C\C(=O)N(C)c1cc2c(cc1F)nc(Nc3ccccc3C)c4cncn24

>  <parent_molecule_chembl_id>  (523) 
CHEMBL1916891

>  <assay_type>  (523) 
B

>  <src_id>  (523) 
1

>  <ligand_efficiency>  (523) 
{u'le': u'0.3', u'bei': u'16.1', u'sei': u'10.59', u'lle': u'2.65'}

>  <standard_flag>  (523) 
True

>  <molecule_chembl_id>  (523) 
CHEMBL1916891

>  <target_organism>  (523) 
Homo sapiens

>  <standard_units>  (523) 
nM

>  <record_id>  (523) 
1559392

>  <document_chembl_id>  (523) 
CHEMBL1914368

>  <bao_format>  (523) 
BAO_0000357

>  <data_validity_description>  (523) 
None

>  <activity_id>  (523) 
7931064

>  <standard_type>  (523) 
IC50

>  <target_chembl_id>  (523) 
CHEMBL1862

>  <data_validity_comment>  (523) 
None

>  <published_value>  (523) 
109

>  <document_year>  (523) 
2011

>  <target_pref_name>  (523) 
Tyrosine-protein kinase ABL

>  <assay_chembl_id>  (523) 
CHEMBL1919070

>  <standard_relation>  (523) 
=

>  <assay_description>  (523) 
Inhibition of Abl1 relative to control

>  <published_relation>  (523) 
=

>  <standard_value>  (523) 
109

>  <qudt_units>  (523) 
http://www.openphacts.org/units/Nanomolar

>  <target_tax_id>  (523) 
9606

>  <bao_label>  (523) 
single protein format

>  <published_units>  (523) 
nM

>  <pchembl_value>  (523) 
6.96

>  <published_type>  (523) 
IC50

>  <activity_comment>  (523) 
None

$$$$

     RDKit          

 31 34  0  0  0  0  0  0  0  0999 V2000
    0.0000    0.0000    0.0000 C   0  0  0  0  0  0  0  0  0  0  0  0
    0.0000    0.0000    0.0000 S   0  0  0  0  0  0  0  0  0  0  0  0
    0.0000    0.0000    0.0000 C   0  0  0  0  0  0  0  0  0  0  0  0
    0.0000    0.0000    0.0000 C   0  0  0  0  0  0  0  0  0  0  0  0
    0.0000    0.0000    0.0000 C   0  0  0  0  0  0  0  0  0  0  0  0
    0.0000    0.0000    0.0000 C   0  0  0  0  0  0  0  0  0  0  0  0
    0.0000    0.0000    0.0000 C   0  0  0  0  0  0  0  0  0  0  0  0
    0.0000    0.0000    0.0000 C   0  0  0  0  0  0  0  0  0  0  0  0
    0.0000    0.0000    0.0000 C   0  0  0  0  0  0  0  0  0  0  0  0
    0.0000    0.0000    0.0000 O   0  0  0  0  0  0  0  0  0  0  0  0
    0.0000    0.0000    0.0000 N   0  0  0  0  0  0  0  0  0  0  0  0
    0.0000    0.0000    0.0000 C   0  0  0  0  0  0  0  0  0  0  0  0
    0.0000    0.0000    0.0000 C   0  0  0  0  0  0  0  0  0  0  0  0
    0.0000    0.0000    0.0000 C   0  0  0  0  0  0  0  0  0  0  0  0
    0.0000    0.0000    0.0000 C   0  0  0  0  0  0  0  0  0  0  0  0
    0.0000    0.0000    0.0000 C   0  0  0  0  0  0  0  0  0  0  0  0
    0.0000    0.0000    0.0000 C   0  0  0  0  0  0  0  0  0  0  0  0
    0.0000    0.0000    0.0000 N   0  0  0  0  0  0  0  0  0  0  0  0
    0.0000    0.0000    0.0000 C   0  0  0  0  0  0  0  0  0  0  0  0
    0.0000    0.0000    0.0000 N   0  0  0  0  0  0  0  0  0  0  0  0
    0.0000    0.0000    0.0000 C   0  0  0  0  0  0  0  0  0  0  0  0
    0.0000    0.0000    0.0000 C   0  0  0  0  0  0  0  0  0  0  0  0
    0.0000    0.0000    0.0000 C   0  0  0  0  0  0  0  0  0  0  0  0
    0.0000    0.0000    0.0000 N   0  0  0  0  0  0  0  0  0  0  0  0
    0.0000    0.0000    0.0000 C   0  0  0  0  0  0  0  0  0  0  0  0
    0.0000    0.0000    0.0000 C   0  0  0  0  0  0  0  0  0  0  0  0
    0.0000    0.0000    0.0000 C   0  0  0  0  0  0  0  0  0  0  0  0
    0.0000    0.0000    0.0000 C   0  0  0  0  0  0  0  0  0  0  0  0
    0.0000    0.0000    0.0000 N   0  0  0  0  0  0  0  0  0  0  0  0
    0.0000    0.0000    0.0000 C   0  0  0  0  0  0  0  0  0  0  0  0
    0.0000    0.0000    0.0000 C   0  0  0  0  0  0  0  0  0  0  0  0
  1  2  1  0
  2  3  1  0
  3  4  2  0
  4  5  1  0
  5  6  2  0
  6  7  1  0
  7  8  2  0
  7  9  1  0
  9 10  2  0
  9 11  1  0
 11 12  1  0
 12 13  2  0
 13 14  1  0
 14 15  2  0
 15 16  1  0
 15 17  1  0
 17 18  1  0
 18 19  1  0
 19 20  2  0
 20 21  1  0
 21 22  2  0
 22 23  1  0
 23 24  2  0
 23 25  1  0
 25 26  2  0
 26 27  1  0
 27 28  2  0
 28 29  1  0
 29 30  2  0
 17 31  2  0
  8  3  1  0
 31 12  1  0
 24 19  1  0
 30 25  1  0
M  END
>  <pIC50>  (524) 
5.96

>  <ChEMBL_ID>  (524) 
CHEMBL1923082

>  <document_journal>  (524) 
Bioorg. Med. Chem. Lett.

>  <bao_endpoint>  (524) 
BAO_0000190

>  <potential_duplicate>  (524) 
False

>  <uo_units>  (524) 
UO_0000065

>  <canonical_smiles>  (524) 
CSc1cccc(c1)C(=O)Nc2ccc(C)c(Nc3nccc(n3)c4cccnc4)c2

>  <parent_molecule_chembl_id>  (524) 
CHEMBL1923082

>  <assay_type>  (524) 
B

>  <src_id>  (524) 
1

>  <ligand_efficiency>  (524) 
{u'le': u'0.26', u'bei': u'13.94', u'sei': u'5.67', u'lle': u'1.23'}

>  <standard_flag>  (524) 
True

>  <molecule_chembl_id>  (524) 
CHEMBL1923082

>  <target_organism>  (524) 
Homo sapiens

>  <standard_units>  (524) 
nM

>  <record_id>  (524) 
1562161

>  <document_chembl_id>  (524) 
CHEMBL1921769

>  <bao_format>  (524) 
BAO_0000357

>  <data_validity_description>  (524) 
None

>  <activity_id>  (524) 
7954958

>  <standard_type>  (524) 
IC50

>  <target_chembl_id>  (524) 
CHEMBL1862

>  <data_validity_comment>  (524) 
None

>  <published_value>  (524) 
1.1

>  <document_year>  (524) 
2011

>  <target_pref_name>  (524) 
Tyrosine-protein kinase ABL

>  <assay_chembl_id>  (524) 
CHEMBL1925856

>  <standard_relation>  (524) 
=

>  <assay_description>  (524) 
Inhibition of Abl using DAIpYAAPFAKKK phosphopeptide as substrate by MALDI-MS analysis

>  <published_relation>  (524) 
=

>  <standard_value>  (524) 
1100

>  <qudt_units>  (524) 
http://www.openphacts.org/units/Nanomolar

>  <target_tax_id>  (524) 
9606

>  <bao_label>  (524) 
single protein format

>  <published_units>  (524) 
uM

>  <pchembl_value>  (524) 
5.96

>  <published_type>  (524) 
IC50

>  <activity_comment>  (524) 
None

$$$$

     RDKit          

 39 43  0  0  0  0  0  0  0  0999 V2000
    0.0000    0.0000    0.0000 C   0  0  0  0  0  0  0  0  0  0  0  0
    0.0000    0.0000    0.0000 C   0  0  0  0  0  0  0  0  0  0  0  0
    0.0000    0.0000    0.0000 C   0  0  0  0  0  0  0  0  0  0  0  0
    0.0000    0.0000    0.0000 C   0  0  0  0  0  0  0  0  0  0  0  0
    0.0000    0.0000    0.0000 C   0  0  0  0  0  0  0  0  0  0  0  0
    0.0000    0.0000    0.0000 C   0  0  0  0  0  0  0  0  0  0  0  0
    0.0000    0.0000    0.0000 C   0  0  0  0  0  0  0  0  0  0  0  0
    0.0000    0.0000    0.0000 N   0  0  0  0  0  0  0  0  0  0  0  0
    0.0000    0.0000    0.0000 N   0  0  0  0  0  0  0  0  0  0  0  0
    0.0000    0.0000    0.0000 C   0  0  0  0  0  0  0  0  0  0  0  0
    0.0000    0.0000    0.0000 C   0  0  0  0  0  0  0  0  0  0  0  0
    0.0000    0.0000    0.0000 C   0  0  0  0  0  0  0  0  0  0  0  0
    0.0000    0.0000    0.0000 N   0  0  0  0  0  0  0  0  0  0  0  0
    0.0000    0.0000    0.0000 C   0  0  0  0  0  0  0  0  0  0  0  0
    0.0000    0.0000    0.0000 O   0  0  0  0  0  0  0  0  0  0  0  0
    0.0000    0.0000    0.0000 N   0  0  0  0  0  0  0  0  0  0  0  0
    0.0000    0.0000    0.0000 C   0  0  0  0  0  0  0  0  0  0  0  0
    0.0000    0.0000    0.0000 C   0  0  0  0  0  0  0  0  0  0  0  0
    0.0000    0.0000    0.0000 C   0  0  0  0  0  0  0  0  0  0  0  0
    0.0000    0.0000    0.0000 C   0  0  0  0  0  0  0  0  0  0  0  0
    0.0000    0.0000    0.0000 O   0  0  0  0  0  0  0  0  0  0  0  0
    0.0000    0.0000    0.0000 C   0  0  0  0  0  0  0  0  0  0  0  0
    0.0000    0.0000    0.0000 C   0  0  0  0  0  0  0  0  0  0  0  0
    0.0000    0.0000    0.0000 N   0  0  0  0  0  0  0  0  0  0  0  0
    0.0000    0.0000    0.0000 C   0  0  0  0  0  0  0  0  0  0  0  0
    0.0000    0.0000    0.0000 C   0  0  0  0  0  0  0  0  0  0  0  0
    0.0000    0.0000    0.0000 O   0  0  0  0  0  0  0  0  0  0  0  0
    0.0000    0.0000    0.0000 C   0  0  0  0  0  0  0  0  0  0  0  0
    0.0000    0.0000    0.0000 C   0  0  0  0  0  0  0  0  0  0  0  0
    0.0000    0.0000    0.0000 C   0  0  0  0  0  0  0  0  0  0  0  0
    0.0000    0.0000    0.0000 C   0  0  0  0  0  0  0  0  0  0  0  0
    0.0000    0.0000    0.0000 C   0  0  0  0  0  0  0  0  0  0  0  0
    0.0000    0.0000    0.0000 C   0  0  0  0  0  0  0  0  0  0  0  0
    0.0000    0.0000    0.0000 C   0  0  0  0  0  0  0  0  0  0  0  0
    0.0000    0.0000    0.0000 C   0  0  0  0  0  0  0  0  0  0  0  0
    0.0000    0.0000    0.0000 C   0  0  0  0  0  0  0  0  0  0  0  0
    0.0000    0.0000    0.0000 C   0  0  0  0  0  0  0  0  0  0  0  0
    0.0000    0.0000    0.0000 C   0  0  0  0  0  0  0  0  0  0  0  0
    0.0000    0.0000    0.0000 C   0  0  0  0  0  0  0  0  0  0  0  0
  1  2  1  0
  2  3  2  0
  3  4  1  0
  4  5  2  0
  5  6  1  0
  6  7  2  0
  5  8  1  0
  8  9  1  0
  9 10  2  0
 10 11  1  0
 11 12  2  0
 12 13  1  0
 13 14  1  0
 14 15  2  0
 14 16  1  0
 16 17  1  0
 17 18  2  0
 18 19  1  0
 19 20  2  0
 20 21  1  0
 21 22  1  0
 22 23  1  0
 23 24  1  0
 24 25  1  0
 25 26  1  0
 26 27  1  0
 27 28  1  0
 28 29  1  0
 20 30  1  0
 30 31  2  0
 31 32  1  0
 32 33  2  0
 33 34  1  0
 34 35  2  0
 10 36  1  0
 36 37  1  0
 36 38  1  0
 36 39  1  0
  7  2  1  0
 12  8  1  0
 35 17  1  0
 29 24  1  0
 35 30  1  0
M  END
>  <pIC50>  (525) 
4.39

>  <ChEMBL_ID>  (525) 
CHEMBL103667

>  <document_journal>  (525) 
Bioorg. Med. Chem. Lett.

>  <bao_endpoint>  (525) 
BAO_0000190

>  <potential_duplicate>  (525) 
False

>  <uo_units>  (525) 
UO_0000065

>  <canonical_smiles>  (525) 
Cc1ccc(cc1)n2nc(cc2NC(=O)Nc3ccc(OCCN4CCOCC4)c5ccccc35)C(C)(C)C

>  <parent_molecule_chembl_id>  (525) 
CHEMBL103667

>  <assay_type>  (525) 
B

>  <src_id>  (525) 
1

>  <ligand_efficiency>  (525) 
{u'le': u'0.15', u'bei': u'8.31', u'sei': u'5.44', u'lle': u'-1.52'}

>  <standard_flag>  (525) 
True

>  <molecule_chembl_id>  (525) 
CHEMBL103667

>  <target_organism>  (525) 
Homo sapiens

>  <standard_units>  (525) 
nM

>  <record_id>  (525) 
1566420

>  <document_chembl_id>  (525) 
CHEMBL1926590

>  <bao_format>  (525) 
BAO_0000357

>  <data_validity_description>  (525) 
None

>  <activity_id>  (525) 
7959660

>  <standard_type>  (525) 
IC50

>  <target_chembl_id>  (525) 
CHEMBL1862

>  <data_validity_comment>  (525) 
None

>  <published_value>  (525) 
41

>  <document_year>  (525) 
2011

>  <target_pref_name>  (525) 
Tyrosine-protein kinase ABL

>  <assay_chembl_id>  (525) 
CHEMBL1932270

>  <standard_relation>  (525) 
=

>  <assay_description>  (525) 
Inhibition of ABL1

>  <published_relation>  (525) 
=

>  <standard_value>  (525) 
41000

>  <qudt_units>  (525) 
http://www.openphacts.org/units/Nanomolar

>  <target_tax_id>  (525) 
9606

>  <bao_label>  (525) 
single protein format

>  <published_units>  (525) 
uM

>  <pchembl_value>  (525) 
4.39

>  <published_type>  (525) 
IC50

>  <activity_comment>  (525) 
None

$$$$

     RDKit          

 35 39  0  0  0  0  0  0  0  0999 V2000
    0.0000    0.0000    0.0000 N   0  0  0  0  0  0  0  0  0  0  0  0
    0.0000    0.0000    0.0000 C   0  0  0  0  0  0  0  0  0  0  0  0
    0.0000    0.0000    0.0000 N   0  0  0  0  0  0  0  0  0  0  0  0
    0.0000    0.0000    0.0000 C   0  0  0  0  0  0  0  0  0  0  0  0
    0.0000    0.0000    0.0000 C   0  0  0  0  0  0  0  0  0  0  0  0
    0.0000    0.0000    0.0000 C   0  0  0  0  0  0  0  0  0  0  0  0
    0.0000    0.0000    0.0000 C   0  0  0  0  0  0  0  0  0  0  0  0
    0.0000    0.0000    0.0000 N   0  0  0  0  0  0  0  0  0  0  0  0
    0.0000    0.0000    0.0000 N   0  0  0  0  0  0  0  0  0  0  0  0
    0.0000    0.0000    0.0000 C   0  0  0  0  0  0  0  0  0  0  0  0
    0.0000    0.0000    0.0000 C   0  0  0  0  0  0  0  0  0  0  0  0
    0.0000    0.0000    0.0000 O   0  0  0  0  0  0  0  0  0  0  0  0
    0.0000    0.0000    0.0000 C   0  0  0  0  0  0  0  0  0  0  0  0
    0.0000    0.0000    0.0000 C   0  0  0  0  0  0  0  0  0  0  0  0
    0.0000    0.0000    0.0000 S   0  0  0  0  0  0  0  0  0  0  0  0
    0.0000    0.0000    0.0000 C   0  0  0  0  0  0  0  0  0  0  0  0
    0.0000    0.0000    0.0000 C   0  0  0  0  0  0  0  0  0  0  0  0
    0.0000    0.0000    0.0000 C   0  0  0  0  0  0  0  0  0  0  0  0
    0.0000    0.0000    0.0000 C   0  0  0  0  0  0  0  0  0  0  0  0
    0.0000    0.0000    0.0000 C   0  0  0  0  0  0  0  0  0  0  0  0
    0.0000    0.0000    0.0000 C   0  0  0  0  0  0  0  0  0  0  0  0
    0.0000    0.0000    0.0000 N   0  0  0  0  0  0  0  0  0  0  0  0
    0.0000    0.0000    0.0000 C   0  0  0  0  0  0  0  0  0  0  0  0
    0.0000    0.0000    0.0000 O   0  0  0  0  0  0  0  0  0  0  0  0
    0.0000    0.0000    0.0000 N   0  0  0  0  0  0  0  0  0  0  0  0
    0.0000    0.0000    0.0000 C   0  0  0  0  0  0  0  0  0  0  0  0
    0.0000    0.0000    0.0000 C   0  0  0  0  0  0  0  0  0  0  0  0
    0.0000    0.0000    0.0000 C   0  0  0  0  0  0  0  0  0  0  0  0
    0.0000    0.0000    0.0000 C   0  0  0  0  0  0  0  0  0  0  0  0
    0.0000    0.0000    0.0000 C   0  0  0  0  0  0  0  0  0  0  0  0
    0.0000    0.0000    0.0000 F   0  0  0  0  0  0  0  0  0  0  0  0
    0.0000    0.0000    0.0000 C   0  0  0  0  0  0  0  0  0  0  0  0
    0.0000    0.0000    0.0000 C   0  0  0  0  0  0  0  0  0  0  0  0
    0.0000    0.0000    0.0000 C   0  0  0  0  0  0  0  0  0  0  0  0
    0.0000    0.0000    0.0000 C   0  0  0  0  0  0  0  0  0  0  0  0
  1  2  1  0
  2  3  2  0
  3  4  1  0
  4  5  2  0
  5  6  1  0
  6  7  1  0
  7  8  2  0
  8  9  1  0
  9 10  1  0
 10 11  1  0
 11 12  1  0
  9 13  1  0
  5 14  1  0
 14 15  1  0
 15 16  1  0
 16 17  2  0
 17 18  1  0
 18 19  2  0
 19 20  1  0
 20 21  2  0
 21 22  1  0
 22 23  1  0
 23 24  2  0
 23 25  1  0
 25 26  1  0
 26 27  2  0
 27 28  1  0
 28 29  2  0
 29 30  1  0
 30 31  1  0
 30 32  2  0
 21 33  1  0
 33 34  2  0
 17 35  1  0
 35  2  1  0
 13  6  2  0
 35 14  2  0
 34 18  1  0
 32 26  1  0
M  END
>  <pIC50>  (526) 
7.92

>  <ChEMBL_ID>  (526) 
CHEMBL1980297

>  <document_journal>  (526) 
Bioorg. Med. Chem. Lett.

>  <bao_endpoint>  (526) 
BAO_0000190

>  <potential_duplicate>  (526) 
False

>  <uo_units>  (526) 
UO_0000065

>  <canonical_smiles>  (526) 
Nc1ncc(c2cnn(CCO)c2)c3scc(c4ccc(NC(=O)Nc5cccc(F)c5)cc4)c13

>  <parent_molecule_chembl_id>  (526) 
CHEMBL1980297

>  <assay_type>  (526) 
B

>  <src_id>  (526) 
1

>  <ligand_efficiency>  (526) 
{u'le': u'0.31', u'bei': u'16.21', u'sei': u'5.41', u'lle': u'4.54'}

>  <standard_flag>  (526) 
True

>  <molecule_chembl_id>  (526) 
CHEMBL1980297

>  <target_organism>  (526) 
Homo sapiens

>  <standard_units>  (526) 
nM

>  <record_id>  (526) 
1638275

>  <document_chembl_id>  (526) 
CHEMBL2021801

>  <bao_format>  (526) 
BAO_0000357

>  <data_validity_description>  (526) 
None

>  <activity_id>  (526) 
10863747

>  <standard_type>  (526) 
IC50

>  <target_chembl_id>  (526) 
CHEMBL1862

>  <data_validity_comment>  (526) 
None

>  <published_value>  (526) 
12

>  <document_year>  (526) 
2012

>  <target_pref_name>  (526) 
Tyrosine-protein kinase ABL

>  <assay_chembl_id>  (526) 
CHEMBL2024902

>  <standard_relation>  (526) 
=

>  <assay_description>  (526) 
Inhibition of ABL by TR-FRET assay

>  <published_relation>  (526) 
=

>  <standard_value>  (526) 
12

>  <qudt_units>  (526) 
http://www.openphacts.org/units/Nanomolar

>  <target_tax_id>  (526) 
9606

>  <bao_label>  (526) 
single protein format

>  <published_units>  (526) 
nM

>  <pchembl_value>  (526) 
7.92

>  <published_type>  (526) 
IC50

>  <activity_comment>  (526) 
None

$$$$

     RDKit          

 40 44  0  0  0  0  0  0  0  0999 V2000
    0.0000    0.0000    0.0000 C   0  0  0  0  0  0  0  0  0  0  0  0
    0.0000    0.0000    0.0000 O   0  0  0  0  0  0  0  0  0  0  0  0
    0.0000    0.0000    0.0000 C   0  0  0  0  0  0  0  0  0  0  0  0
    0.0000    0.0000    0.0000 C   0  0  0  0  0  0  0  0  0  0  0  0
    0.0000    0.0000    0.0000 C   0  0  0  0  0  0  0  0  0  0  0  0
    0.0000    0.0000    0.0000 C   0  0  0  0  0  0  0  0  0  0  0  0
    0.0000    0.0000    0.0000 C   0  0  0  0  0  0  0  0  0  0  0  0
    0.0000    0.0000    0.0000 O   0  0  0  0  0  0  0  0  0  0  0  0
    0.0000    0.0000    0.0000 C   0  0  0  0  0  0  0  0  0  0  0  0
    0.0000    0.0000    0.0000 C   0  0  0  0  0  0  0  0  0  0  0  0
    0.0000    0.0000    0.0000 C   0  0  0  0  0  0  0  0  0  0  0  0
    0.0000    0.0000    0.0000 C   0  0  0  0  0  0  0  0  0  0  0  0
    0.0000    0.0000    0.0000 N   0  0  0  0  0  0  0  0  0  0  0  0
    0.0000    0.0000    0.0000 C   0  0  0  0  0  0  0  0  0  0  0  0
    0.0000    0.0000    0.0000 O   0  0  0  0  0  0  0  0  0  0  0  0
    0.0000    0.0000    0.0000 C   0  0  0  0  0  0  0  0  0  0  0  0
    0.0000    0.0000    0.0000 C   0  0  0  0  0  0  0  0  0  0  0  0
    0.0000    0.0000    0.0000 C   0  0  0  0  0  0  0  0  0  0  0  0
    0.0000    0.0000    0.0000 N   0  0  0  0  0  0  0  0  0  0  0  0
    0.0000    0.0000    0.0000 C   0  0  0  0  0  0  0  0  0  0  0  0
    0.0000    0.0000    0.0000 C   0  0  0  0  0  0  0  0  0  0  0  0
    0.0000    0.0000    0.0000 C   0  0  0  0  0  0  0  0  0  0  0  0
    0.0000    0.0000    0.0000 C   0  0  0  0  0  0  0  0  0  0  0  0
    0.0000    0.0000    0.0000 O   0  0  0  0  0  0  0  0  0  0  0  0
    0.0000    0.0000    0.0000 N   0  0  0  0  0  0  0  0  0  0  0  0
    0.0000    0.0000    0.0000 C   0  0  0  0  0  0  0  0  0  0  0  0
    0.0000    0.0000    0.0000 O   0  0  0  0  0  0  0  0  0  0  0  0
    0.0000    0.0000    0.0000 C   0  0  0  0  0  0  0  0  0  0  0  0
    0.0000    0.0000    0.0000 C   0  0  0  0  0  0  0  0  0  0  0  0
    0.0000    0.0000    0.0000 C   0  0  0  0  0  0  0  0  0  0  0  0
    0.0000    0.0000    0.0000 C   0  0  0  0  0  0  0  0  0  0  0  0
    0.0000    0.0000    0.0000 C   0  0  0  0  0  0  0  0  0  0  0  0
    0.0000    0.0000    0.0000 C   0  0  0  0  0  0  0  0  0  0  0  0
    0.0000    0.0000    0.0000 N   0  0  0  0  0  0  0  0  0  0  0  0
    0.0000    0.0000    0.0000 C   0  0  0  0  0  0  0  0  0  0  0  0
    0.0000    0.0000    0.0000 C   0  0  0  0  0  0  0  0  0  0  0  0
    0.0000    0.0000    0.0000 C   0  0  0  0  0  0  0  0  0  0  0  0
    0.0000    0.0000    0.0000 N   0  0  0  0  0  0  0  0  0  0  0  0
    0.0000    0.0000    0.0000 C   0  0  0  0  0  0  0  0  0  0  0  0
    0.0000    0.0000    0.0000 C   0  0  0  0  0  0  0  0  0  0  0  0
  1  2  1  0
  2  3  1  0
  3  4  2  0
  4  5  1  0
  5  6  2  0
  6  7  1  0
  7  8  1  0
  8  9  1  0
  9 10  2  0
 10 11  1  0
 11 12  2  0
 12 13  1  0
 13 14  1  0
 14 15  2  0
 14 16  1  0
 16 17  2  0
 17 18  1  0
 17 19  1  0
 19 20  1  0
 20 21  1  0
 21 22  1  0
 21 23  1  0
 21 24  1  0
 19 25  1  0
 25 26  1  0
 26 27  2  0
 25 28  1  0
 28 29  2  0
 29 30  1  0
 30 31  2  0
 31 32  1  0
 32 33  2  0
 12 34  1  0
 34 35  2  0
  7 36  2  0
 36 37  1  0
 37 38  2  0
 38 39  1  0
 39 40  2  0
 40  3  1  0
 39  6  1  0
 35  9  1  0
 26 16  1  0
 33 28  1  0
M  END
>  <pIC50>  (527) 
6.0

>  <ChEMBL_ID>  (527) 
CHEMBL460472

>  <document_journal>  (527) 
J. Med. Chem.

>  <bao_endpoint>  (527) 
BAO_0000190

>  <potential_duplicate>  (527) 
False

>  <uo_units>  (527) 
UO_0000065

>  <canonical_smiles>  (527) 
COc1ccc2c(Oc3ccc(NC(=O)C4=C(C)N(CC(C)(C)O)N(C4=O)c5ccccc5)nc3)ccnc2c1

>  <parent_molecule_chembl_id>  (527) 
CHEMBL460472

>  <assay_type>  (527) 
B

>  <src_id>  (527) 
1

>  <ligand_efficiency>  (527) 
{u'le': u'0.2', u'bei': u'11.12', u'sei': u'5.12', u'lle': u'2.87'}

>  <standard_flag>  (527) 
True

>  <molecule_chembl_id>  (527) 
CHEMBL460472

>  <target_organism>  (527) 
Homo sapiens

>  <standard_units>  (527) 
nM

>  <record_id>  (527) 
1644201

>  <document_chembl_id>  (527) 
CHEMBL2029218

>  <bao_format>  (527) 
BAO_0000357

>  <data_validity_description>  (527) 
None

>  <activity_id>  (527) 
10889051

>  <standard_type>  (527) 
IC50

>  <target_chembl_id>  (527) 
CHEMBL1862

>  <data_validity_comment>  (527) 
None

>  <published_value>  (527) 
1

>  <document_year>  (527) 
2012

>  <target_pref_name>  (527) 
Tyrosine-protein kinase ABL

>  <assay_chembl_id>  (527) 
CHEMBL2032464

>  <standard_relation>  (527) 
=

>  <assay_description>  (527) 
Inhibition of Abl

>  <published_relation>  (527) 
=

>  <standard_value>  (527) 
1000

>  <qudt_units>  (527) 
http://www.openphacts.org/units/Nanomolar

>  <target_tax_id>  (527) 
9606

>  <bao_label>  (527) 
single protein format

>  <published_units>  (527) 
uM

>  <pchembl_value>  (527) 
6

>  <published_type>  (527) 
IC50

>  <activity_comment>  (527) 
None

$$$$

     RDKit          

 39 43  0  0  0  0  0  0  0  0999 V2000
    0.0000    0.0000    0.0000 C   0  0  0  0  0  0  0  0  0  0  0  0
    0.0000    0.0000    0.0000 O   0  0  0  0  0  0  0  0  0  0  0  0
    0.0000    0.0000    0.0000 C   0  0  0  0  0  0  0  0  0  0  0  0
    0.0000    0.0000    0.0000 C   0  0  0  0  0  0  0  0  0  0  0  0
    0.0000    0.0000    0.0000 C   0  0  0  0  0  0  0  0  0  0  0  0
    0.0000    0.0000    0.0000 N   0  0  0  0  0  0  0  0  0  0  0  0
    0.0000    0.0000    0.0000 C   0  0  0  0  0  0  0  0  0  0  0  0
    0.0000    0.0000    0.0000 C   0  0  0  0  0  0  0  0  0  0  0  0
    0.0000    0.0000    0.0000 C   0  0  0  0  0  0  0  0  0  0  0  0
    0.0000    0.0000    0.0000 O   0  0  0  0  0  0  0  0  0  0  0  0
    0.0000    0.0000    0.0000 C   0  0  0  0  0  0  0  0  0  0  0  0
    0.0000    0.0000    0.0000 C   0  0  0  0  0  0  0  0  0  0  0  0
    0.0000    0.0000    0.0000 C   0  0  0  0  0  0  0  0  0  0  0  0
    0.0000    0.0000    0.0000 C   0  0  0  0  0  0  0  0  0  0  0  0
    0.0000    0.0000    0.0000 N   0  0  0  0  0  0  0  0  0  0  0  0
    0.0000    0.0000    0.0000 C   0  0  0  0  0  0  0  0  0  0  0  0
    0.0000    0.0000    0.0000 O   0  0  0  0  0  0  0  0  0  0  0  0
    0.0000    0.0000    0.0000 C   0  0  0  0  0  0  0  0  0  0  0  0
    0.0000    0.0000    0.0000 C   0  0  0  0  0  0  0  0  0  0  0  0
    0.0000    0.0000    0.0000 C   0  0  0  0  0  0  0  0  0  0  0  0
    0.0000    0.0000    0.0000 N   0  0  0  0  0  0  0  0  0  0  0  0
    0.0000    0.0000    0.0000 C   0  0  0  0  0  0  0  0  0  0  0  0
    0.0000    0.0000    0.0000 N   0  0  0  0  0  0  0  0  0  0  0  0
    0.0000    0.0000    0.0000 C   0  0  0  0  0  0  0  0  0  0  0  0
    0.0000    0.0000    0.0000 O   0  0  0  0  0  0  0  0  0  0  0  0
    0.0000    0.0000    0.0000 C   0  0  0  0  0  0  0  0  0  0  0  0
    0.0000    0.0000    0.0000 C   0  0  0  0  0  0  0  0  0  0  0  0
    0.0000    0.0000    0.0000 C   0  0  0  0  0  0  0  0  0  0  0  0
    0.0000    0.0000    0.0000 C   0  0  0  0  0  0  0  0  0  0  0  0
    0.0000    0.0000    0.0000 C   0  0  0  0  0  0  0  0  0  0  0  0
    0.0000    0.0000    0.0000 C   0  0  0  0  0  0  0  0  0  0  0  0
    0.0000    0.0000    0.0000 C   0  0  0  0  0  0  0  0  0  0  0  0
    0.0000    0.0000    0.0000 C   0  0  0  0  0  0  0  0  0  0  0  0
    0.0000    0.0000    0.0000 F   0  0  0  0  0  0  0  0  0  0  0  0
    0.0000    0.0000    0.0000 C   0  0  0  0  0  0  0  0  0  0  0  0
    0.0000    0.0000    0.0000 C   0  0  0  0  0  0  0  0  0  0  0  0
    0.0000    0.0000    0.0000 C   0  0  0  0  0  0  0  0  0  0  0  0
    0.0000    0.0000    0.0000 O   0  0  0  0  0  0  0  0  0  0  0  0
    0.0000    0.0000    0.0000 C   0  0  0  0  0  0  0  0  0  0  0  0
  1  2  1  0
  2  3  1  0
  3  4  2  0
  4  5  1  0
  5  6  2  0
  6  7  1  0
  7  8  2  0
  8  9  1  0
  9 10  1  0
 10 11  1  0
 11 12  2  0
 12 13  1  0
 13 14  2  0
 14 15  1  0
 15 16  1  0
 16 17  2  0
 16 18  1  0
 18 19  2  0
 19 20  1  0
 19 21  1  0
 21 22  1  0
 21 23  1  0
 23 24  1  0
 24 25  2  0
 23 26  1  0
 26 27  2  0
 27 28  1  0
 28 29  2  0
 29 30  1  0
 30 31  2  0
 14 32  1  0
 32 33  2  0
 33 34  1  0
  9 35  2  0
 35 36  1  0
 36 37  2  0
 37 38  1  0
 38 39  1  0
 37  3  1  0
 35  5  1  0
 33 11  1  0
 24 18  1  0
 31 26  1  0
M  END
>  <pIC50>  (528) 
8.0

>  <ChEMBL_ID>  (528) 
CHEMBL2031893

>  <document_journal>  (528) 
J. Med. Chem.

>  <bao_endpoint>  (528) 
BAO_0000190

>  <potential_duplicate>  (528) 
False

>  <uo_units>  (528) 
UO_0000065

>  <canonical_smiles>  (528) 
COc1cc2nccc(Oc3ccc(NC(=O)C4=C(C)N(C)N(C4=O)c5ccccc5)cc3F)c2cc1OC

>  <parent_molecule_chembl_id>  (528) 
CHEMBL2031893

>  <assay_type>  (528) 
B

>  <src_id>  (528) 
1

>  <ligand_efficiency>  (528) 
{u'le': u'0.28', u'bei': u'15.14', u'sei': u'8.58', u'lle': u'4.12'}

>  <standard_flag>  (528) 
True

>  <molecule_chembl_id>  (528) 
CHEMBL2031893

>  <target_organism>  (528) 
Homo sapiens

>  <standard_units>  (528) 
nM

>  <record_id>  (528) 
1644002

>  <document_chembl_id>  (528) 
CHEMBL2029218

>  <bao_format>  (528) 
BAO_0000357

>  <data_validity_description>  (528) 
None

>  <activity_id>  (528) 
10889078

>  <standard_type>  (528) 
IC50

>  <target_chembl_id>  (528) 
CHEMBL1862

>  <data_validity_comment>  (528) 
None

>  <published_value>  (528) 
0.01

>  <document_year>  (528) 
2012

>  <target_pref_name>  (528) 
Tyrosine-protein kinase ABL

>  <assay_chembl_id>  (528) 
CHEMBL2032464

>  <standard_relation>  (528) 
=

>  <assay_description>  (528) 
Inhibition of Abl

>  <published_relation>  (528) 
=

>  <standard_value>  (528) 
10

>  <qudt_units>  (528) 
http://www.openphacts.org/units/Nanomolar

>  <target_tax_id>  (528) 
9606

>  <bao_label>  (528) 
single protein format

>  <published_units>  (528) 
uM

>  <pchembl_value>  (528) 
8

>  <published_type>  (528) 
IC50

>  <activity_comment>  (528) 
None

$$$$

     RDKit          

 34 36  0  0  0  0  0  0  0  0999 V2000
    0.0000    0.0000    0.0000 C   0  0  0  0  0  0  0  0  0  0  0  0
    0.0000    0.0000    0.0000 C   0  0  0  0  0  0  0  0  0  0  0  0
    0.0000    0.0000    0.0000 O   0  0  0  0  0  0  0  0  0  0  0  0
    0.0000    0.0000    0.0000 C   0  0  0  0  0  0  0  0  0  0  0  0
    0.0000    0.0000    0.0000 C   0  0  0  0  0  0  0  0  0  0  0  0
    0.0000    0.0000    0.0000 C   0  0  0  0  0  0  0  0  0  0  0  0
    0.0000    0.0000    0.0000 C   0  0  0  0  0  0  0  0  0  0  0  0
    0.0000    0.0000    0.0000 C   0  0  0  0  0  0  0  0  0  0  0  0
    0.0000    0.0000    0.0000 C   0  0  0  0  0  0  0  0  0  0  0  0
    0.0000    0.0000    0.0000 C   0  0  0  0  0  0  0  0  0  0  0  0
    0.0000    0.0000    0.0000 O   0  0  0  0  0  0  0  0  0  0  0  0
    0.0000    0.0000    0.0000 N   0  0  0  0  0  0  0  0  0  0  0  0
    0.0000    0.0000    0.0000 C   0  0  0  0  0  0  0  0  0  0  0  0
    0.0000    0.0000    0.0000 C   0  0  0  0  0  0  0  0  0  0  0  0
    0.0000    0.0000    0.0000 C   0  0  0  0  0  0  0  0  0  0  0  0
    0.0000    0.0000    0.0000 C   0  0  0  0  0  0  0  0  0  0  0  0
    0.0000    0.0000    0.0000 N   0  0  0  0  0  0  0  0  0  0  0  0
    0.0000    0.0000    0.0000 C   0  0  0  0  0  0  0  0  0  0  0  0
    0.0000    0.0000    0.0000 N   0  0  0  0  0  0  0  0  0  0  0  0
    0.0000    0.0000    0.0000 C   0  0  0  0  0  0  0  0  0  0  0  0
    0.0000    0.0000    0.0000 C   0  0  0  0  0  0  0  0  0  0  0  0
    0.0000    0.0000    0.0000 C   0  0  0  0  0  0  0  0  0  0  0  0
    0.0000    0.0000    0.0000 C   0  0  0  0  0  0  0  0  0  0  0  0
    0.0000    0.0000    0.0000 N   0  0  0  0  0  0  0  0  0  0  0  0
    0.0000    0.0000    0.0000 C   0  0  0  0  0  0  0  0  0  0  0  0
    0.0000    0.0000    0.0000 C   0  0  0  0  0  0  0  0  0  0  0  0
    0.0000    0.0000    0.0000 C   0  0  0  0  0  0  0  0  0  0  0  0
    0.0000    0.0000    0.0000 S   0  0  0  0  0  0  0  0  0  0  0  0
    0.0000    0.0000    0.0000 C   0  0  0  0  0  0  0  0  0  0  0  0
    0.0000    0.0000    0.0000 C   0  0  0  0  0  0  0  0  0  0  0  0
    0.0000    0.0000    0.0000 C   0  0  0  0  0  0  0  0  0  0  0  0
    0.0000    0.0000    0.0000 F   0  0  0  0  0  0  0  0  0  0  0  0
    0.0000    0.0000    0.0000 F   0  0  0  0  0  0  0  0  0  0  0  0
    0.0000    0.0000    0.0000 F   0  0  0  0  0  0  0  0  0  0  0  0
  1  2  1  0
  2  3  1  0
  3  4  1  0
  4  5  2  0
  5  6  1  0
  6  7  2  0
  7  8  1  0
  8  9  2  0
  9 10  1  0
 10 11  2  0
 10 12  1  0
  6 13  1  0
 13 14  2  0
 14 15  1  0
 15 16  2  0
 16 17  1  0
 17 18  2  0
 18 19  1  0
 15 20  1  0
 20 21  2  0
 21 22  1  0
 22 23  1  0
 23 24  1  0
 24 25  1  0
 24 26  1  0
 22 27  2  0
 27 28  1  0
  2 29  1  0
 29 30  2  0
 30 31  1  0
 31 32  1  0
 31 33  1  0
 31 34  1  0
  9  4  1  0
 18 13  1  0
 28 20  1  0
M  END
>  <pIC50>  (529) 
5.96

>  <ChEMBL_ID>  (529) 
CHEMBL2042135

>  <document_journal>  (529) 
J. Med. Chem.

>  <bao_endpoint>  (529) 
BAO_0000190

>  <potential_duplicate>  (529) 
False

>  <uo_units>  (529) 
UO_0000065

>  <canonical_smiles>  (529) 
C[C@@H](Oc1cc(ccc1C(=O)N)c2cc(cnc2N)c3cc(CN(C)C)cs3)\C=C/C(F)(F)F

>  <parent_molecule_chembl_id>  (529) 
CHEMBL2042135

>  <assay_type>  (529) 
B

>  <src_id>  (529) 
1

>  <ligand_efficiency>  (529) 
{u'le': u'0.24', u'bei': u'12.14', u'sei': u'4.85', u'lle': u'1.58'}

>  <standard_flag>  (529) 
True

>  <molecule_chembl_id>  (529) 
CHEMBL2042135

>  <target_organism>  (529) 
Homo sapiens

>  <standard_units>  (529) 
nM

>  <record_id>  (529) 
1649726

>  <document_chembl_id>  (529) 
CHEMBL2040736

>  <bao_format>  (529) 
BAO_0000357

>  <data_validity_description>  (529) 
None

>  <activity_id>  (529) 
10923949

>  <standard_type>  (529) 
IC50

>  <target_chembl_id>  (529) 
CHEMBL1862

>  <data_validity_comment>  (529) 
None

>  <published_value>  (529) 
1.11

>  <document_year>  (529) 
2012

>  <target_pref_name>  (529) 
Tyrosine-protein kinase ABL

>  <assay_chembl_id>  (529) 
CHEMBL2044166

>  <standard_relation>  (529) 
=

>  <assay_description>  (529) 
Inhibition of ABL at 1 uM

>  <published_relation>  (529) 
=

>  <standard_value>  (529) 
1110

>  <qudt_units>  (529) 
http://www.openphacts.org/units/Nanomolar

>  <target_tax_id>  (529) 
9606

>  <bao_label>  (529) 
single protein format

>  <published_units>  (529) 
uM

>  <pchembl_value>  (529) 
5.96

>  <published_type>  (529) 
IC50

>  <activity_comment>  (529) 
None

$$$$

     RDKit          

 22 24  0  0  0  0  0  0  0  0999 V2000
    0.0000    0.0000    0.0000 C   0  0  0  0  0  0  0  0  0  0  0  0
    0.0000    0.0000    0.0000 O   0  0  0  0  0  0  0  0  0  0  0  0
    0.0000    0.0000    0.0000 C   0  0  0  0  0  0  0  0  0  0  0  0
    0.0000    0.0000    0.0000 O   0  0  0  0  0  0  0  0  0  0  0  0
    0.0000    0.0000    0.0000 N   0  0  0  0  0  0  0  0  0  0  0  0
    0.0000    0.0000    0.0000 C   0  0  0  0  0  0  0  0  0  0  0  0
    0.0000    0.0000    0.0000 N   0  0  0  0  0  0  0  0  0  0  0  0
    0.0000    0.0000    0.0000 C   0  0  0  0  0  0  0  0  0  0  0  0
    0.0000    0.0000    0.0000 C   0  0  0  0  0  0  0  0  0  0  0  0
    0.0000    0.0000    0.0000 C   0  0  0  0  0  0  0  0  0  0  0  0
    0.0000    0.0000    0.0000 C   0  0  0  0  0  0  0  0  0  0  0  0
    0.0000    0.0000    0.0000 C   0  0  0  0  0  0  0  0  0  0  0  0
    0.0000    0.0000    0.0000 C   0  0  0  0  0  0  0  0  0  0  0  0
    0.0000    0.0000    0.0000 N   0  0  0  0  0  0  0  0  0  0  0  0
    0.0000    0.0000    0.0000 C   0  0  0  0  0  0  0  0  0  0  0  0
    0.0000    0.0000    0.0000 O   0  0  0  0  0  0  0  0  0  0  0  0
    0.0000    0.0000    0.0000 C   0  0  0  0  0  0  0  0  0  0  0  0
    0.0000    0.0000    0.0000 C   0  0  0  0  0  0  0  0  0  0  0  0
    0.0000    0.0000    0.0000 C   0  0  0  0  0  0  0  0  0  0  0  0
    0.0000    0.0000    0.0000 C   0  0  0  0  0  0  0  0  0  0  0  0
    0.0000    0.0000    0.0000 C   0  0  0  0  0  0  0  0  0  0  0  0
    0.0000    0.0000    0.0000 C   0  0  0  0  0  0  0  0  0  0  0  0
  1  2  1  0
  2  3  1  0
  3  4  2  0
  3  5  1  0
  5  6  1  0
  6  7  2  0
  7  8  1  0
  8  9  2  0
  9 10  1  0
 10 11  2  0
 11 12  1  0
 12 13  2  0
 13 14  1  0
 11 15  1  0
 15 16  2  0
 15 17  1  0
 17 18  2  0
 18 19  1  0
 19 20  2  0
 20 21  1  0
 21 22  2  0
 14  6  1  0
 13  8  1  0
 22 17  1  0
M  END
>  <pIC50>  (530) 
5.3

>  <ChEMBL_ID>  (530) 
CHEMBL685

>  <document_journal>  (530) 
Bioorg. Med. Chem. Lett.

>  <bao_endpoint>  (530) 
BAO_0000190

>  <potential_duplicate>  (530) 
False

>  <uo_units>  (530) 
UO_0000065

>  <canonical_smiles>  (530) 
COC(=O)Nc1nc2ccc(cc2[nH]1)C(=O)c3ccccc3

>  <parent_molecule_chembl_id>  (530) 
CHEMBL685

>  <assay_type>  (530) 
B

>  <src_id>  (530) 
1

>  <ligand_efficiency>  (530) 
{u'le': u'0.33', u'bei': u'17.95', u'sei': u'6.3', u'lle': u'2.24'}

>  <standard_flag>  (530) 
True

>  <molecule_chembl_id>  (530) 
CHEMBL685

>  <target_organism>  (530) 
Homo sapiens

>  <standard_units>  (530) 
nM

>  <record_id>  (530) 
1657258

>  <document_chembl_id>  (530) 
CHEMBL2057208

>  <bao_format>  (530) 
BAO_0000357

>  <data_validity_description>  (530) 
None

>  <activity_id>  (530) 
10956817

>  <standard_type>  (530) 
IC50

>  <target_chembl_id>  (530) 
CHEMBL1862

>  <data_validity_comment>  (530) 
None

>  <published_value>  (530) 
5

>  <document_year>  (530) 
2012

>  <target_pref_name>  (530) 
Tyrosine-protein kinase ABL

>  <assay_chembl_id>  (530) 
CHEMBL2061829

>  <standard_relation>  (530) 
=

>  <assay_description>  (530) 
Inhibition of human ABL

>  <published_relation>  (530) 
=

>  <standard_value>  (530) 
5000

>  <qudt_units>  (530) 
http://www.openphacts.org/units/Nanomolar

>  <target_tax_id>  (530) 
9606

>  <bao_label>  (530) 
single protein format

>  <published_units>  (530) 
uM

>  <pchembl_value>  (530) 
5.3

>  <published_type>  (530) 
IC50

>  <activity_comment>  (530) 
None

$$$$

     RDKit          

 18 20  0  0  0  0  0  0  0  0999 V2000
    0.0000    0.0000    0.0000 N   0  0  0  0  0  0  0  0  0  0  0  0
    0.0000    0.0000    0.0000 C   0  0  0  0  0  0  0  0  0  0  0  0
    0.0000    0.0000    0.0000 N   0  0  0  0  0  0  0  0  0  0  0  0
    0.0000    0.0000    0.0000 C   0  0  0  0  0  0  0  0  0  0  0  0
    0.0000    0.0000    0.0000 C   0  0  0  0  0  0  0  0  0  0  0  0
    0.0000    0.0000    0.0000 C   0  0  0  0  0  0  0  0  0  0  0  0
    0.0000    0.0000    0.0000 C   0  0  0  0  0  0  0  0  0  0  0  0
    0.0000    0.0000    0.0000 C   0  0  0  0  0  0  0  0  0  0  0  0
    0.0000    0.0000    0.0000 C   0  0  0  0  0  0  0  0  0  0  0  0
    0.0000    0.0000    0.0000 N   0  0  0  0  0  0  0  0  0  0  0  0
    0.0000    0.0000    0.0000 C   0  0  0  0  0  0  0  0  0  0  0  0
    0.0000    0.0000    0.0000 O   0  0  0  0  0  0  0  0  0  0  0  0
    0.0000    0.0000    0.0000 C   0  0  0  0  0  0  0  0  0  0  0  0
    0.0000    0.0000    0.0000 C   0  0  0  0  0  0  0  0  0  0  0  0
    0.0000    0.0000    0.0000 C   0  0  0  0  0  0  0  0  0  0  0  0
    0.0000    0.0000    0.0000 C   0  0  0  0  0  0  0  0  0  0  0  0
    0.0000    0.0000    0.0000 C   0  0  0  0  0  0  0  0  0  0  0  0
    0.0000    0.0000    0.0000 C   0  0  0  0  0  0  0  0  0  0  0  0
  1  2  1  0
  2  3  2  0
  3  4  1  0
  4  5  2  0
  5  6  1  0
  6  7  2  0
  7  8  1  0
  8  9  2  0
  9 10  1  0
  7 11  1  0
 11 12  2  0
 11 13  1  0
 13 14  2  0
 14 15  1  0
 15 16  2  0
 16 17  1  0
 17 18  2  0
 10  2  1  0
  9  4  1  0
 18 13  1  0
M  END
>  <pIC50>  (531) 
5.0

>  <ChEMBL_ID>  (531) 
CHEMBL2030560

>  <document_journal>  (531) 
Bioorg. Med. Chem. Lett.

>  <bao_endpoint>  (531) 
BAO_0000190

>  <potential_duplicate>  (531) 
False

>  <uo_units>  (531) 
UO_0000065

>  <canonical_smiles>  (531) 
Nc1nc2ccc(cc2[nH]1)C(=O)c3ccccc3

>  <parent_molecule_chembl_id>  (531) 
CHEMBL2030560

>  <assay_type>  (531) 
B

>  <src_id>  (531) 
1

>  <ligand_efficiency>  (531) 
{u'le': u'0.38', u'bei': u'21.07', u'sei': u'6.97', u'lle': u'2.46'}

>  <standard_flag>  (531) 
True

>  <molecule_chembl_id>  (531) 
CHEMBL2030560

>  <target_organism>  (531) 
Homo sapiens

>  <standard_units>  (531) 
nM

>  <record_id>  (531) 
1657260

>  <document_chembl_id>  (531) 
CHEMBL2057208

>  <bao_format>  (531) 
BAO_0000357

>  <data_validity_description>  (531) 
None

>  <activity_id>  (531) 
10956818

>  <standard_type>  (531) 
IC50

>  <target_chembl_id>  (531) 
CHEMBL1862

>  <data_validity_comment>  (531) 
None

>  <published_value>  (531) 
10

>  <document_year>  (531) 
2012

>  <target_pref_name>  (531) 
Tyrosine-protein kinase ABL

>  <assay_chembl_id>  (531) 
CHEMBL2061829

>  <standard_relation>  (531) 
=

>  <assay_description>  (531) 
Inhibition of human ABL

>  <published_relation>  (531) 
=

>  <standard_value>  (531) 
10000

>  <qudt_units>  (531) 
http://www.openphacts.org/units/Nanomolar

>  <target_tax_id>  (531) 
9606

>  <bao_label>  (531) 
single protein format

>  <published_units>  (531) 
uM

>  <pchembl_value>  (531) 
5

>  <published_type>  (531) 
IC50

>  <activity_comment>  (531) 
None

$$$$

     RDKit          

 24 26  0  0  0  0  0  0  0  0999 V2000
    0.0000    0.0000    0.0000 O   0  0  0  0  0  0  0  0  0  0  0  0
    0.0000    0.0000    0.0000 C   0  0  0  0  0  0  0  0  0  0  0  0
    0.0000    0.0000    0.0000 C   0  0  0  0  0  0  0  0  0  0  0  0
    0.0000    0.0000    0.0000 N   0  0  0  0  0  0  0  0  0  0  0  0
    0.0000    0.0000    0.0000 C   0  0  0  0  0  0  0  0  0  0  0  0
    0.0000    0.0000    0.0000 O   0  0  0  0  0  0  0  0  0  0  0  0
    0.0000    0.0000    0.0000 N   0  0  0  0  0  0  0  0  0  0  0  0
    0.0000    0.0000    0.0000 C   0  0  0  0  0  0  0  0  0  0  0  0
    0.0000    0.0000    0.0000 N   0  0  0  0  0  0  0  0  0  0  0  0
    0.0000    0.0000    0.0000 C   0  0  0  0  0  0  0  0  0  0  0  0
    0.0000    0.0000    0.0000 C   0  0  0  0  0  0  0  0  0  0  0  0
    0.0000    0.0000    0.0000 C   0  0  0  0  0  0  0  0  0  0  0  0
    0.0000    0.0000    0.0000 C   0  0  0  0  0  0  0  0  0  0  0  0
    0.0000    0.0000    0.0000 C   0  0  0  0  0  0  0  0  0  0  0  0
    0.0000    0.0000    0.0000 C   0  0  0  0  0  0  0  0  0  0  0  0
    0.0000    0.0000    0.0000 N   0  0  0  0  0  0  0  0  0  0  0  0
    0.0000    0.0000    0.0000 C   0  0  0  0  0  0  0  0  0  0  0  0
    0.0000    0.0000    0.0000 O   0  0  0  0  0  0  0  0  0  0  0  0
    0.0000    0.0000    0.0000 C   0  0  0  0  0  0  0  0  0  0  0  0
    0.0000    0.0000    0.0000 C   0  0  0  0  0  0  0  0  0  0  0  0
    0.0000    0.0000    0.0000 C   0  0  0  0  0  0  0  0  0  0  0  0
    0.0000    0.0000    0.0000 C   0  0  0  0  0  0  0  0  0  0  0  0
    0.0000    0.0000    0.0000 C   0  0  0  0  0  0  0  0  0  0  0  0
    0.0000    0.0000    0.0000 C   0  0  0  0  0  0  0  0  0  0  0  0
  1  2  1  0
  2  3  1  0
  3  4  1  0
  4  5  1  0
  5  6  2  0
  5  7  1  0
  7  8  1  0
  8  9  2  0
  9 10  1  0
 10 11  2  0
 11 12  1  0
 12 13  2  0
 13 14  1  0
 14 15  2  0
 15 16  1  0
 12 17  1  0
 17 18  2  0
 17 19  1  0
 19 20  2  0
 20 21  1  0
 21 22  2  0
 22 23  1  0
 23 24  2  0
 16  8  1  0
 15 10  1  0
 24 19  1  0
M  END
>  <pIC50>  (532) 
7.03

>  <ChEMBL_ID>  (532) 
CHEMBL170250

>  <document_journal>  (532) 
Bioorg. Med. Chem. Lett.

>  <bao_endpoint>  (532) 
BAO_0000190

>  <potential_duplicate>  (532) 
False

>  <uo_units>  (532) 
UO_0000065

>  <canonical_smiles>  (532) 
OCCNC(=O)Nc1nc2cc(ccc2[nH]1)C(=O)c3ccccc3

>  <parent_molecule_chembl_id>  (532) 
CHEMBL170250

>  <assay_type>  (532) 
B

>  <src_id>  (532) 
1

>  <ligand_efficiency>  (532) 
{u'le': u'0.4', u'bei': u'21.67', u'sei': u'6.56', u'lle': u'5.16'}

>  <standard_flag>  (532) 
True

>  <molecule_chembl_id>  (532) 
CHEMBL170250

>  <target_organism>  (532) 
Homo sapiens

>  <standard_units>  (532) 
nM

>  <record_id>  (532) 
1657265

>  <document_chembl_id>  (532) 
CHEMBL2057208

>  <bao_format>  (532) 
BAO_0000357

>  <data_validity_description>  (532) 
None

>  <activity_id>  (532) 
10956819

>  <standard_type>  (532) 
IC50

>  <target_chembl_id>  (532) 
CHEMBL1862

>  <data_validity_comment>  (532) 
None

>  <published_value>  (532) 
0.094

>  <document_year>  (532) 
2012

>  <target_pref_name>  (532) 
Tyrosine-protein kinase ABL

>  <assay_chembl_id>  (532) 
CHEMBL2061829

>  <standard_relation>  (532) 
=

>  <assay_description>  (532) 
Inhibition of human ABL

>  <published_relation>  (532) 
=

>  <standard_value>  (532) 
94

>  <qudt_units>  (532) 
http://www.openphacts.org/units/Nanomolar

>  <target_tax_id>  (532) 
9606

>  <bao_label>  (532) 
single protein format

>  <published_units>  (532) 
uM

>  <pchembl_value>  (532) 
7.03

>  <published_type>  (532) 
IC50

>  <activity_comment>  (532) 
None

$$$$

     RDKit          

 29 32  0  0  0  0  0  0  0  0999 V2000
    0.0000    0.0000    0.0000 O   0  0  0  0  0  0  0  0  0  0  0  0
    0.0000    0.0000    0.0000 C   0  0  0  0  0  0  0  0  0  0  0  0
    0.0000    0.0000    0.0000 N   0  0  0  0  0  0  0  0  0  0  0  0
    0.0000    0.0000    0.0000 C   0  0  0  0  0  0  0  0  0  0  0  0
    0.0000    0.0000    0.0000 C   0  0  0  0  0  0  0  0  0  0  0  0
    0.0000    0.0000    0.0000 C   0  0  0  0  0  0  0  0  0  0  0  0
    0.0000    0.0000    0.0000 C   0  0  0  0  0  0  0  0  0  0  0  0
    0.0000    0.0000    0.0000 C   0  0  0  0  0  0  0  0  0  0  0  0
    0.0000    0.0000    0.0000 N   0  0  0  0  0  0  0  0  0  0  0  0
    0.0000    0.0000    0.0000 C   0  0  0  0  0  0  0  0  0  0  0  0
    0.0000    0.0000    0.0000 C   0  0  0  0  0  0  0  0  0  0  0  0
    0.0000    0.0000    0.0000 N   0  0  0  0  0  0  0  0  0  0  0  0
    0.0000    0.0000    0.0000 C   0  0  0  0  0  0  0  0  0  0  0  0
    0.0000    0.0000    0.0000 N   0  0  0  0  0  0  0  0  0  0  0  0
    0.0000    0.0000    0.0000 C   0  0  0  0  0  0  0  0  0  0  0  0
    0.0000    0.0000    0.0000 C   0  0  0  0  0  0  0  0  0  0  0  0
    0.0000    0.0000    0.0000 C   0  0  0  0  0  0  0  0  0  0  0  0
    0.0000    0.0000    0.0000 C   0  0  0  0  0  0  0  0  0  0  0  0
    0.0000    0.0000    0.0000 C   0  0  0  0  0  0  0  0  0  0  0  0
    0.0000    0.0000    0.0000 C   0  0  0  0  0  0  0  0  0  0  0  0
    0.0000    0.0000    0.0000 N   0  0  0  0  0  0  0  0  0  0  0  0
    0.0000    0.0000    0.0000 C   0  0  0  0  0  0  0  0  0  0  0  0
    0.0000    0.0000    0.0000 O   0  0  0  0  0  0  0  0  0  0  0  0
    0.0000    0.0000    0.0000 C   0  0  0  0  0  0  0  0  0  0  0  0
    0.0000    0.0000    0.0000 C   0  0  0  0  0  0  0  0  0  0  0  0
    0.0000    0.0000    0.0000 C   0  0  0  0  0  0  0  0  0  0  0  0
    0.0000    0.0000    0.0000 C   0  0  0  0  0  0  0  0  0  0  0  0
    0.0000    0.0000    0.0000 C   0  0  0  0  0  0  0  0  0  0  0  0
    0.0000    0.0000    0.0000 C   0  0  0  0  0  0  0  0  0  0  0  0
  1  2  2  0
  2  3  1  0
  3  4  1  0
  4  5  1  0
  5  6  1  0
  6  7  1  0
  7  8  1  0
  8  9  1  0
  9 10  1  0
 10 11  1  0
  2 12  1  0
 12 13  1  0
 13 14  2  0
 14 15  1  0
 15 16  2  0
 16 17  1  0
 17 18  2  0
 18 19  1  0
 19 20  2  0
 20 21  1  0
 18 22  1  0
 22 23  2  0
 22 24  1  0
 24 25  2  0
 25 26  1  0
 26 27  2  0
 27 28  1  0
 28 29  2  0
 11  6  1  0
 21 13  1  0
 20 15  1  0
 29 24  1  0
M  END
>  <pIC50>  (533) 
7.0

>  <ChEMBL_ID>  (533) 
CHEMBL2059164

>  <document_journal>  (533) 
Bioorg. Med. Chem. Lett.

>  <bao_endpoint>  (533) 
BAO_0000190

>  <potential_duplicate>  (533) 
False

>  <uo_units>  (533) 
UO_0000065

>  <canonical_smiles>  (533) 
O=C(NCCC1CCNCC1)Nc2nc3ccc(cc3[nH]2)C(=O)c4ccccc4

>  <parent_molecule_chembl_id>  (533) 
CHEMBL2059164

>  <assay_type>  (533) 
B

>  <src_id>  (533) 
1

>  <ligand_efficiency>  (533) 
{u'le': u'0.33', u'bei': u'17.88', u'sei': u'7.08', u'lle': u'4.05'}

>  <standard_flag>  (533) 
True

>  <molecule_chembl_id>  (533) 
CHEMBL2059164

>  <target_organism>  (533) 
Homo sapiens

>  <standard_units>  (533) 
nM

>  <record_id>  (533) 
1657266

>  <document_chembl_id>  (533) 
CHEMBL2057208

>  <bao_format>  (533) 
BAO_0000357

>  <data_validity_description>  (533) 
None

>  <activity_id>  (533) 
10956820

>  <standard_type>  (533) 
IC50

>  <target_chembl_id>  (533) 
CHEMBL1862

>  <data_validity_comment>  (533) 
None

>  <published_value>  (533) 
0.1

>  <document_year>  (533) 
2012

>  <target_pref_name>  (533) 
Tyrosine-protein kinase ABL

>  <assay_chembl_id>  (533) 
CHEMBL2061829

>  <standard_relation>  (533) 
=

>  <assay_description>  (533) 
Inhibition of human ABL

>  <published_relation>  (533) 
=

>  <standard_value>  (533) 
100

>  <qudt_units>  (533) 
http://www.openphacts.org/units/Nanomolar

>  <target_tax_id>  (533) 
9606

>  <bao_label>  (533) 
single protein format

>  <published_units>  (533) 
uM

>  <pchembl_value>  (533) 
7

>  <published_type>  (533) 
IC50

>  <activity_comment>  (533) 
None

$$$$

     RDKit          

 29 32  0  0  0  0  0  0  0  0999 V2000
    0.0000    0.0000    0.0000 O   0  0  0  0  0  0  0  0  0  0  0  0
    0.0000    0.0000    0.0000 C   0  0  0  0  0  0  0  0  0  0  0  0
    0.0000    0.0000    0.0000 N   0  0  0  0  0  0  0  0  0  0  0  0
    0.0000    0.0000    0.0000 C   0  0  0  0  0  0  0  0  0  0  0  0
    0.0000    0.0000    0.0000 C   0  0  0  0  0  0  0  0  0  0  0  0
    0.0000    0.0000    0.0000 C   0  0  0  0  0  0  0  0  0  0  0  0
    0.0000    0.0000    0.0000 C   0  0  0  0  0  0  0  0  0  0  0  0
    0.0000    0.0000    0.0000 C   0  0  0  0  0  0  0  0  0  0  0  0
    0.0000    0.0000    0.0000 C   0  0  0  0  0  0  0  0  0  0  0  0
    0.0000    0.0000    0.0000 N   0  0  0  0  0  0  0  0  0  0  0  0
    0.0000    0.0000    0.0000 C   0  0  0  0  0  0  0  0  0  0  0  0
    0.0000    0.0000    0.0000 N   0  0  0  0  0  0  0  0  0  0  0  0
    0.0000    0.0000    0.0000 C   0  0  0  0  0  0  0  0  0  0  0  0
    0.0000    0.0000    0.0000 N   0  0  0  0  0  0  0  0  0  0  0  0
    0.0000    0.0000    0.0000 C   0  0  0  0  0  0  0  0  0  0  0  0
    0.0000    0.0000    0.0000 C   0  0  0  0  0  0  0  0  0  0  0  0
    0.0000    0.0000    0.0000 C   0  0  0  0  0  0  0  0  0  0  0  0
    0.0000    0.0000    0.0000 C   0  0  0  0  0  0  0  0  0  0  0  0
    0.0000    0.0000    0.0000 C   0  0  0  0  0  0  0  0  0  0  0  0
    0.0000    0.0000    0.0000 C   0  0  0  0  0  0  0  0  0  0  0  0
    0.0000    0.0000    0.0000 N   0  0  0  0  0  0  0  0  0  0  0  0
    0.0000    0.0000    0.0000 C   0  0  0  0  0  0  0  0  0  0  0  0
    0.0000    0.0000    0.0000 O   0  0  0  0  0  0  0  0  0  0  0  0
    0.0000    0.0000    0.0000 C   0  0  0  0  0  0  0  0  0  0  0  0
    0.0000    0.0000    0.0000 C   0  0  0  0  0  0  0  0  0  0  0  0
    0.0000    0.0000    0.0000 C   0  0  0  0  0  0  0  0  0  0  0  0
    0.0000    0.0000    0.0000 C   0  0  0  0  0  0  0  0  0  0  0  0
    0.0000    0.0000    0.0000 C   0  0  0  0  0  0  0  0  0  0  0  0
    0.0000    0.0000    0.0000 C   0  0  0  0  0  0  0  0  0  0  0  0
  1  2  2  0
  2  3  1  0
  3  4  1  0
  4  5  1  0
  5  6  1  0
  6  7  1  0
  7  8  1  0
  8  9  1  0
  9 10  1  0
 10 11  1  0
  2 12  1  0
 12 13  1  0
 13 14  2  0
 14 15  1  0
 15 16  2  0
 16 17  1  0
 17 18  2  0
 18 19  1  0
 19 20  2  0
 20 21  1  0
 18 22  1  0
 22 23  2  0
 22 24  1  0
 24 25  2  0
 25 26  1  0
 26 27  2  0
 27 28  1  0
 28 29  2  0
 11  6  1  0
 21 13  1  0
 20 15  1  0
 29 24  1  0
M  END
>  <pIC50>  (534) 
8.0

>  <ChEMBL_ID>  (534) 
CHEMBL2059165

>  <document_journal>  (534) 
Bioorg. Med. Chem. Lett.

>  <bao_endpoint>  (534) 
BAO_0000190

>  <potential_duplicate>  (534) 
False

>  <uo_units>  (534) 
UO_0000065

>  <canonical_smiles>  (534) 
O=C(NCCC1CCCNC1)Nc2nc3ccc(cc3[nH]2)C(=O)c4ccccc4

>  <parent_molecule_chembl_id>  (534) 
CHEMBL2059165

>  <assay_type>  (534) 
B

>  <src_id>  (534) 
1

>  <ligand_efficiency>  (534) 
{u'le': u'0.38', u'bei': u'20.44', u'sei': u'8.09', u'lle': u'4.98'}

>  <standard_flag>  (534) 
True

>  <molecule_chembl_id>  (534) 
CHEMBL2059165

>  <target_organism>  (534) 
Homo sapiens

>  <standard_units>  (534) 
nM

>  <record_id>  (534) 
1657267

>  <document_chembl_id>  (534) 
CHEMBL2057208

>  <bao_format>  (534) 
BAO_0000357

>  <data_validity_description>  (534) 
None

>  <activity_id>  (534) 
10956821

>  <standard_type>  (534) 
IC50

>  <target_chembl_id>  (534) 
CHEMBL1862

>  <data_validity_comment>  (534) 
None

>  <published_value>  (534) 
0.01

>  <document_year>  (534) 
2012

>  <target_pref_name>  (534) 
Tyrosine-protein kinase ABL

>  <assay_chembl_id>  (534) 
CHEMBL2061829

>  <standard_relation>  (534) 
=

>  <assay_description>  (534) 
Inhibition of human ABL

>  <published_relation>  (534) 
=

>  <standard_value>  (534) 
10

>  <qudt_units>  (534) 
http://www.openphacts.org/units/Nanomolar

>  <target_tax_id>  (534) 
9606

>  <bao_label>  (534) 
single protein format

>  <published_units>  (534) 
uM

>  <pchembl_value>  (534) 
8

>  <published_type>  (534) 
IC50

>  <activity_comment>  (534) 
None

$$$$

     RDKit          

 23 25  0  0  0  0  0  0  0  0999 V2000
    0.0000    0.0000    0.0000 N   0  0  0  0  0  0  0  0  0  0  0  0
    0.0000    0.0000    0.0000 C   0  0  0  0  0  0  0  0  0  0  0  0
    0.0000    0.0000    0.0000 C   0  0  0  0  0  0  0  0  0  0  0  0
    0.0000    0.0000    0.0000 C   0  0  0  0  0  0  0  0  0  0  0  0
    0.0000    0.0000    0.0000 O   0  0  0  0  0  0  0  0  0  0  0  0
    0.0000    0.0000    0.0000 N   0  0  0  0  0  0  0  0  0  0  0  0
    0.0000    0.0000    0.0000 C   0  0  0  0  0  0  0  0  0  0  0  0
    0.0000    0.0000    0.0000 N   0  0  0  0  0  0  0  0  0  0  0  0
    0.0000    0.0000    0.0000 C   0  0  0  0  0  0  0  0  0  0  0  0
    0.0000    0.0000    0.0000 C   0  0  0  0  0  0  0  0  0  0  0  0
    0.0000    0.0000    0.0000 C   0  0  0  0  0  0  0  0  0  0  0  0
    0.0000    0.0000    0.0000 C   0  0  0  0  0  0  0  0  0  0  0  0
    0.0000    0.0000    0.0000 C   0  0  0  0  0  0  0  0  0  0  0  0
    0.0000    0.0000    0.0000 C   0  0  0  0  0  0  0  0  0  0  0  0
    0.0000    0.0000    0.0000 N   0  0  0  0  0  0  0  0  0  0  0  0
    0.0000    0.0000    0.0000 C   0  0  0  0  0  0  0  0  0  0  0  0
    0.0000    0.0000    0.0000 O   0  0  0  0  0  0  0  0  0  0  0  0
    0.0000    0.0000    0.0000 C   0  0  0  0  0  0  0  0  0  0  0  0
    0.0000    0.0000    0.0000 C   0  0  0  0  0  0  0  0  0  0  0  0
    0.0000    0.0000    0.0000 C   0  0  0  0  0  0  0  0  0  0  0  0
    0.0000    0.0000    0.0000 C   0  0  0  0  0  0  0  0  0  0  0  0
    0.0000    0.0000    0.0000 C   0  0  0  0  0  0  0  0  0  0  0  0
    0.0000    0.0000    0.0000 C   0  0  0  0  0  0  0  0  0  0  0  0
  1  2  1  0
  2  3  1  0
  3  4  1  0
  4  5  2  0
  4  6  1  0
  6  7  1  0
  7  8  2  0
  8  9  1  0
  9 10  2  0
 10 11  1  0
 11 12  2  0
 12 13  1  0
 13 14  2  0
 14 15  1  0
 12 16  1  0
 16 17  2  0
 16 18  1  0
 18 19  2  0
 19 20  1  0
 20 21  2  0
 21 22  1  0
 22 23  2  0
 15  7  1  0
 14  9  1  0
 23 18  1  0
M  END
>  <pIC50>  (535) 
6.26

>  <ChEMBL_ID>  (535) 
CHEMBL2059166

>  <document_journal>  (535) 
Bioorg. Med. Chem. Lett.

>  <bao_endpoint>  (535) 
BAO_0000190

>  <potential_duplicate>  (535) 
False

>  <uo_units>  (535) 
UO_0000065

>  <canonical_smiles>  (535) 
NCCC(=O)Nc1nc2ccc(cc2[nH]1)C(=O)c3ccccc3

>  <parent_molecule_chembl_id>  (535) 
CHEMBL2059166

>  <assay_type>  (535) 
B

>  <src_id>  (535) 
1

>  <ligand_efficiency>  (535) 
{u'le': u'0.37', u'bei': u'20.3', u'sei': u'6.21', u'lle': u'4.56'}

>  <standard_flag>  (535) 
True

>  <molecule_chembl_id>  (535) 
CHEMBL2059166

>  <target_organism>  (535) 
Homo sapiens

>  <standard_units>  (535) 
nM

>  <record_id>  (535) 
1657268

>  <document_chembl_id>  (535) 
CHEMBL2057208

>  <bao_format>  (535) 
BAO_0000357

>  <data_validity_description>  (535) 
None

>  <activity_id>  (535) 
10956822

>  <standard_type>  (535) 
IC50

>  <target_chembl_id>  (535) 
CHEMBL1862

>  <data_validity_comment>  (535) 
None

>  <published_value>  (535) 
0.55

>  <document_year>  (535) 
2012

>  <target_pref_name>  (535) 
Tyrosine-protein kinase ABL

>  <assay_chembl_id>  (535) 
CHEMBL2061829

>  <standard_relation>  (535) 
=

>  <assay_description>  (535) 
Inhibition of human ABL

>  <published_relation>  (535) 
=

>  <standard_value>  (535) 
550

>  <qudt_units>  (535) 
http://www.openphacts.org/units/Nanomolar

>  <target_tax_id>  (535) 
9606

>  <bao_label>  (535) 
single protein format

>  <published_units>  (535) 
uM

>  <pchembl_value>  (535) 
6.26

>  <published_type>  (535) 
IC50

>  <activity_comment>  (535) 
None

$$$$

     RDKit          

 32 35  0  0  0  0  0  0  0  0999 V2000
    0.0000    0.0000    0.0000 C   0  0  0  0  0  0  0  0  0  0  0  0
    0.0000    0.0000    0.0000 C   0  0  0  0  0  0  0  0  0  0  0  0
    0.0000    0.0000    0.0000 N   0  0  0  0  0  0  0  0  0  0  0  0
    0.0000    0.0000    0.0000 C   0  0  0  0  0  0  0  0  0  0  0  0
    0.0000    0.0000    0.0000 O   0  0  0  0  0  0  0  0  0  0  0  0
    0.0000    0.0000    0.0000 C   0  0  0  0  0  0  0  0  0  0  0  0
    0.0000    0.0000    0.0000 C   0  0  0  0  0  0  0  0  0  0  0  0
    0.0000    0.0000    0.0000 C   0  0  0  0  0  0  0  0  0  0  0  0
    0.0000    0.0000    0.0000 C   0  0  0  0  0  0  0  0  0  0  0  0
    0.0000    0.0000    0.0000 N   0  0  0  0  0  0  0  0  0  0  0  0
    0.0000    0.0000    0.0000 C   0  0  0  0  0  0  0  0  0  0  0  0
    0.0000    0.0000    0.0000 N   0  0  0  0  0  0  0  0  0  0  0  0
    0.0000    0.0000    0.0000 C   0  0  0  0  0  0  0  0  0  0  0  0
    0.0000    0.0000    0.0000 C   0  0  0  0  0  0  0  0  0  0  0  0
    0.0000    0.0000    0.0000 N   0  0  0  0  0  0  0  0  0  0  0  0
    0.0000    0.0000    0.0000 N   0  0  0  0  0  0  0  0  0  0  0  0
    0.0000    0.0000    0.0000 C   0  0  0  0  0  0  0  0  0  0  0  0
    0.0000    0.0000    0.0000 C   0  0  0  0  0  0  0  0  0  0  0  0
    0.0000    0.0000    0.0000 C   0  0  0  0  0  0  0  0  0  0  0  0
    0.0000    0.0000    0.0000 C   0  0  0  0  0  0  0  0  0  0  0  0
    0.0000    0.0000    0.0000 O   0  0  0  0  0  0  0  0  0  0  0  0
    0.0000    0.0000    0.0000 C   0  0  0  0  0  0  0  0  0  0  0  0
    0.0000    0.0000    0.0000 C   0  0  0  0  0  0  0  0  0  0  0  0
    0.0000    0.0000    0.0000 C   0  0  0  0  0  0  0  0  0  0  0  0
    0.0000    0.0000    0.0000 C   0  0  0  0  0  0  0  0  0  0  0  0
    0.0000    0.0000    0.0000 Cl  0  0  0  0  0  0  0  0  0  0  0  0
    0.0000    0.0000    0.0000 C   0  0  0  0  0  0  0  0  0  0  0  0
    0.0000    0.0000    0.0000 C   0  0  0  0  0  0  0  0  0  0  0  0
    0.0000    0.0000    0.0000 C   0  0  0  0  0  0  0  0  0  0  0  0
    0.0000    0.0000    0.0000 F   0  0  0  0  0  0  0  0  0  0  0  0
    0.0000    0.0000    0.0000 C   0  0  0  0  0  0  0  0  0  0  0  0
    0.0000    0.0000    0.0000 Cl  0  0  0  0  0  0  0  0  0  0  0  0
  1  2  1  0
  2  3  1  0
  3  4  1  0
  4  5  2  0
  4  6  1  0
  6  7  2  0
  7  8  1  0
  8  9  2  0
  9 10  1  0
 10 11  2  0
 11 12  1  0
  8 13  1  0
 13 14  1  0
 14 15  2  0
 15 16  1  0
 16 17  1  0
 16 18  1  0
 18 19  1  0
 19 20  1  0
 20 21  1  0
 21 22  1  0
 22 23  1  0
  2 24  1  0
 24 25  2  0
 25 26  1  0
 25 27  1  0
 27 28  2  0
 28 29  1  0
 29 30  1  0
 29 31  2  0
 31 32  1  0
 11  6  1  0
 17 13  2  0
 23 18  1  0
 31 24  1  0
M  END
>  <pIC50>  (536) 
5.3

>  <ChEMBL_ID>  (536) 
CHEMBL2071457

>  <document_journal>  (536) 
Bioorg. Med. Chem.

>  <bao_endpoint>  (536) 
BAO_0000190

>  <potential_duplicate>  (536) 
False

>  <uo_units>  (536) 
UO_0000065

>  <canonical_smiles>  (536) 
C[C@H](NC(=O)c1cc(cnc1N)c2cnn(c2)C3CCOCC3)c4c(Cl)ccc(F)c4Cl

>  <parent_molecule_chembl_id>  (536) 
CHEMBL2071457

>  <assay_type>  (536) 
B

>  <src_id>  (536) 
1

>  <ligand_efficiency>  (536) 
{u'le': u'0.23', u'bei': u'11.08', u'sei': u'5.58', u'lle': u'2.12'}

>  <standard_flag>  (536) 
True

>  <molecule_chembl_id>  (536) 
CHEMBL2071457

>  <target_organism>  (536) 
Homo sapiens

>  <standard_units>  (536) 
nM

>  <record_id>  (536) 
1663885

>  <document_chembl_id>  (536) 
CHEMBL2069216

>  <bao_format>  (536) 
BAO_0000357

>  <data_validity_description>  (536) 
None

>  <activity_id>  (536) 
10983101

>  <standard_type>  (536) 
IC50

>  <target_chembl_id>  (536) 
CHEMBL1862

>  <data_validity_comment>  (536) 
None

>  <published_value>  (536) 
4.99

>  <document_year>  (536) 
2012

>  <target_pref_name>  (536) 
Tyrosine-protein kinase ABL

>  <assay_chembl_id>  (536) 
CHEMBL2072604

>  <standard_relation>  (536) 
=

>  <assay_description>  (536) 
Inhibition of ABL

>  <published_relation>  (536) 
=

>  <standard_value>  (536) 
4990

>  <qudt_units>  (536) 
http://www.openphacts.org/units/Nanomolar

>  <target_tax_id>  (536) 
9606

>  <bao_label>  (536) 
single protein format

>  <published_units>  (536) 
uM

>  <pchembl_value>  (536) 
5.3

>  <published_type>  (536) 
IC50

>  <activity_comment>  (536) 
None

$$$$

     RDKit          

 25 28  0  0  0  0  0  0  0  0999 V2000
    0.0000    0.0000    0.0000 C   0  0  0  0  0  0  0  0  0  0  0  0
    0.0000    0.0000    0.0000 O   0  0  0  0  0  0  0  0  0  0  0  0
    0.0000    0.0000    0.0000 C   0  0  0  0  0  0  0  0  0  0  0  0
    0.0000    0.0000    0.0000 C   0  0  0  0  0  0  0  0  0  0  0  0
    0.0000    0.0000    0.0000 C   0  0  0  0  0  0  0  0  0  0  0  0
    0.0000    0.0000    0.0000 C   0  0  0  0  0  0  0  0  0  0  0  0
    0.0000    0.0000    0.0000 C   0  0  0  0  0  0  0  0  0  0  0  0
    0.0000    0.0000    0.0000 C   0  0  0  0  0  0  0  0  0  0  0  0
    0.0000    0.0000    0.0000 C   0  0  0  0  0  0  0  0  0  0  0  0
    0.0000    0.0000    0.0000 C   0  0  0  0  0  0  0  0  0  0  0  0
    0.0000    0.0000    0.0000 C   0  0  0  0  0  0  0  0  0  0  0  0
    0.0000    0.0000    0.0000 C   0  0  0  0  0  0  0  0  0  0  0  0
    0.0000    0.0000    0.0000 C   0  0  0  0  0  0  0  0  0  0  0  0
    0.0000    0.0000    0.0000 N   0  0  0  0  0  0  0  0  0  0  0  0
    0.0000    0.0000    0.0000 N   0  0  0  0  0  0  0  0  0  0  0  0
    0.0000    0.0000    0.0000 C   0  0  0  0  0  0  0  0  0  0  0  0
    0.0000    0.0000    0.0000 C   0  0  0  0  0  0  0  0  0  0  0  0
    0.0000    0.0000    0.0000 C   0  0  0  0  0  0  0  0  0  0  0  0
    0.0000    0.0000    0.0000 C   0  0  0  0  0  0  0  0  0  0  0  0
    0.0000    0.0000    0.0000 N   0  0  0  0  0  0  0  0  0  0  0  0
    0.0000    0.0000    0.0000 C   0  0  0  0  0  0  0  0  0  0  0  0
    0.0000    0.0000    0.0000 N   0  0  0  0  0  0  0  0  0  0  0  0
    0.0000    0.0000    0.0000 C   0  0  0  0  0  0  0  0  0  0  0  0
    0.0000    0.0000    0.0000 N   0  0  0  0  0  0  0  0  0  0  0  0
    0.0000    0.0000    0.0000 C   0  0  0  0  0  0  0  0  0  0  0  0
  1  2  1  0
  2  3  1  0
  3  4  2  0
  4  5  1  0
  5  6  2  0
  6  7  1  0
  7  8  2  0
  8  9  1  0
  9 10  2  0
 10 11  1  0
 11 12  2  0
  8 13  1  0
 13 14  2  0
 14 15  1  0
 15 16  1  0
 16 17  1  0
 16 18  1  0
 15 19  1  0
 19 20  2  0
 20 21  1  0
 21 22  2  0
 22 23  1  0
 23 24  1  0
 23 25  2  0
 12  3  1  0
 11  6  1  0
 25 13  1  0
 25 19  1  0
M  END
>  <pIC50>  (537) 
6.09

>  <ChEMBL_ID>  (537) 
CHEMBL2070045

>  <document_journal>  (537) 
J. Med. Chem.

>  <bao_endpoint>  (537) 
BAO_0000190

>  <potential_duplicate>  (537) 
False

>  <uo_units>  (537) 
UO_0000065

>  <canonical_smiles>  (537) 
Cl.COc1ccc2cc(ccc2c1)c3nn(C(C)C)c4ncnc(N)c34

>  <parent_molecule_chembl_id>  (537) 
CHEMBL1785020

>  <assay_type>  (537) 
B

>  <src_id>  (537) 
1

>  <ligand_efficiency>  (537) 
{u'le': u'0.33', u'bei': u'18.26', u'sei': u'7.72', u'lle': u'2.63'}

>  <standard_flag>  (537) 
True

>  <molecule_chembl_id>  (537) 
CHEMBL2070045

>  <target_organism>  (537) 
Homo sapiens

>  <standard_units>  (537) 
nM

>  <record_id>  (537) 
1661963

>  <document_chembl_id>  (537) 
CHEMBL2069256

>  <bao_format>  (537) 
BAO_0000357

>  <data_validity_description>  (537) 
None

>  <activity_id>  (537) 
10991113

>  <standard_type>  (537) 
IC50

>  <target_chembl_id>  (537) 
CHEMBL1862

>  <data_validity_comment>  (537) 
None

>  <published_value>  (537) 
0.82

>  <document_year>  (537) 
2012

>  <target_pref_name>  (537) 
Tyrosine-protein kinase ABL

>  <assay_chembl_id>  (537) 
CHEMBL2072944

>  <standard_relation>  (537) 
=

>  <assay_description>  (537) 
Inhibition of human ABL using EAIYAAPFAKKK-OH as substrate by phosphor imaging method

>  <published_relation>  (537) 
=

>  <standard_value>  (537) 
820

>  <qudt_units>  (537) 
http://www.openphacts.org/units/Nanomolar

>  <target_tax_id>  (537) 
9606

>  <bao_label>  (537) 
single protein format

>  <published_units>  (537) 
uM

>  <pchembl_value>  (537) 
6.09

>  <published_type>  (537) 
IC50

>  <activity_comment>  (537) 
None

$$$$

     RDKit          

 26 29  0  0  0  0  0  0  0  0999 V2000
    0.0000    0.0000    0.0000 C   0  0  0  0  0  0  0  0  0  0  0  0
    0.0000    0.0000    0.0000 C   0  0  0  0  0  0  0  0  0  0  0  0
    0.0000    0.0000    0.0000 O   0  0  0  0  0  0  0  0  0  0  0  0
    0.0000    0.0000    0.0000 C   0  0  0  0  0  0  0  0  0  0  0  0
    0.0000    0.0000    0.0000 C   0  0  0  0  0  0  0  0  0  0  0  0
    0.0000    0.0000    0.0000 C   0  0  0  0  0  0  0  0  0  0  0  0
    0.0000    0.0000    0.0000 C   0  0  0  0  0  0  0  0  0  0  0  0
    0.0000    0.0000    0.0000 C   0  0  0  0  0  0  0  0  0  0  0  0
    0.0000    0.0000    0.0000 C   0  0  0  0  0  0  0  0  0  0  0  0
    0.0000    0.0000    0.0000 C   0  0  0  0  0  0  0  0  0  0  0  0
    0.0000    0.0000    0.0000 C   0  0  0  0  0  0  0  0  0  0  0  0
    0.0000    0.0000    0.0000 C   0  0  0  0  0  0  0  0  0  0  0  0
    0.0000    0.0000    0.0000 C   0  0  0  0  0  0  0  0  0  0  0  0
    0.0000    0.0000    0.0000 C   0  0  0  0  0  0  0  0  0  0  0  0
    0.0000    0.0000    0.0000 N   0  0  0  0  0  0  0  0  0  0  0  0
    0.0000    0.0000    0.0000 N   0  0  0  0  0  0  0  0  0  0  0  0
    0.0000    0.0000    0.0000 C   0  0  0  0  0  0  0  0  0  0  0  0
    0.0000    0.0000    0.0000 C   0  0  0  0  0  0  0  0  0  0  0  0
    0.0000    0.0000    0.0000 C   0  0  0  0  0  0  0  0  0  0  0  0
    0.0000    0.0000    0.0000 C   0  0  0  0  0  0  0  0  0  0  0  0
    0.0000    0.0000    0.0000 N   0  0  0  0  0  0  0  0  0  0  0  0
    0.0000    0.0000    0.0000 C   0  0  0  0  0  0  0  0  0  0  0  0
    0.0000    0.0000    0.0000 N   0  0  0  0  0  0  0  0  0  0  0  0
    0.0000    0.0000    0.0000 C   0  0  0  0  0  0  0  0  0  0  0  0
    0.0000    0.0000    0.0000 N   0  0  0  0  0  0  0  0  0  0  0  0
    0.0000    0.0000    0.0000 C   0  0  0  0  0  0  0  0  0  0  0  0
  1  2  1  0
  2  3  1  0
  3  4  1  0
  4  5  2  0
  5  6  1  0
  6  7  2  0
  7  8  1  0
  8  9  2  0
  9 10  1  0
 10 11  2  0
 11 12  1  0
 12 13  2  0
  9 14  1  0
 14 15  2  0
 15 16  1  0
 16 17  1  0
 17 18  1  0
 17 19  1  0
 16 20  1  0
 20 21  2  0
 21 22  1  0
 22 23  2  0
 23 24  1  0
 24 25  1  0
 24 26  2  0
 13  4  1  0
 12  7  1  0
 26 14  1  0
 26 20  1  0
M  END
>  <pIC50>  (538) 
5.77

>  <ChEMBL_ID>  (538) 
CHEMBL2070048

>  <document_journal>  (538) 
J. Med. Chem.

>  <bao_endpoint>  (538) 
BAO_0000190

>  <potential_duplicate>  (538) 
False

>  <uo_units>  (538) 
UO_0000065

>  <canonical_smiles>  (538) 
Cl.CCOc1ccc2cc(ccc2c1)c3nn(C(C)C)c4ncnc(N)c34

>  <parent_molecule_chembl_id>  (538) 
CHEMBL1785021

>  <assay_type>  (538) 
B

>  <src_id>  (538) 
1

>  <ligand_efficiency>  (538) 
{u'le': u'0.3', u'bei': u'16.61', u'sei': u'7.32', u'lle': u'1.96'}

>  <standard_flag>  (538) 
True

>  <molecule_chembl_id>  (538) 
CHEMBL2070048

>  <target_organism>  (538) 
Homo sapiens

>  <standard_units>  (538) 
nM

>  <record_id>  (538) 
1661966

>  <document_chembl_id>  (538) 
CHEMBL2069256

>  <bao_format>  (538) 
BAO_0000357

>  <data_validity_description>  (538) 
None

>  <activity_id>  (538) 
10991115

>  <standard_type>  (538) 
IC50

>  <target_chembl_id>  (538) 
CHEMBL1862

>  <data_validity_comment>  (538) 
None

>  <published_value>  (538) 
1.7

>  <document_year>  (538) 
2012

>  <target_pref_name>  (538) 
Tyrosine-protein kinase ABL

>  <assay_chembl_id>  (538) 
CHEMBL2072944

>  <standard_relation>  (538) 
=

>  <assay_description>  (538) 
Inhibition of human ABL using EAIYAAPFAKKK-OH as substrate by phosphor imaging method

>  <published_relation>  (538) 
=

>  <standard_value>  (538) 
1700

>  <qudt_units>  (538) 
http://www.openphacts.org/units/Nanomolar

>  <target_tax_id>  (538) 
9606

>  <bao_label>  (538) 
single protein format

>  <published_units>  (538) 
uM

>  <pchembl_value>  (538) 
5.77

>  <published_type>  (538) 
IC50

>  <activity_comment>  (538) 
None

$$$$

     RDKit          

 31 35  0  0  0  0  0  0  0  0999 V2000
    0.0000    0.0000    0.0000 C   0  0  0  0  0  0  0  0  0  0  0  0
    0.0000    0.0000    0.0000 C   0  0  0  0  0  0  0  0  0  0  0  0
    0.0000    0.0000    0.0000 O   0  0  0  0  0  0  0  0  0  0  0  0
    0.0000    0.0000    0.0000 C   0  0  0  0  0  0  0  0  0  0  0  0
    0.0000    0.0000    0.0000 C   0  0  0  0  0  0  0  0  0  0  0  0
    0.0000    0.0000    0.0000 C   0  0  0  0  0  0  0  0  0  0  0  0
    0.0000    0.0000    0.0000 C   0  0  0  0  0  0  0  0  0  0  0  0
    0.0000    0.0000    0.0000 C   0  0  0  0  0  0  0  0  0  0  0  0
    0.0000    0.0000    0.0000 C   0  0  0  0  0  0  0  0  0  0  0  0
    0.0000    0.0000    0.0000 C   0  0  0  0  0  0  0  0  0  0  0  0
    0.0000    0.0000    0.0000 C   0  0  0  0  0  0  0  0  0  0  0  0
    0.0000    0.0000    0.0000 C   0  0  0  0  0  0  0  0  0  0  0  0
    0.0000    0.0000    0.0000 C   0  0  0  0  0  0  0  0  0  0  0  0
    0.0000    0.0000    0.0000 C   0  0  0  0  0  0  0  0  0  0  0  0
    0.0000    0.0000    0.0000 N   0  0  0  0  0  0  0  0  0  0  0  0
    0.0000    0.0000    0.0000 N   0  0  0  0  0  0  0  0  0  0  0  0
    0.0000    0.0000    0.0000 C   0  0  0  0  0  0  0  0  0  0  0  0
    0.0000    0.0000    0.0000 C   0  0  0  0  0  0  0  0  0  0  0  0
    0.0000    0.0000    0.0000 C   0  0  0  0  0  0  0  0  0  0  0  0
    0.0000    0.0000    0.0000 C   0  0  0  0  0  0  0  0  0  0  0  0
    0.0000    0.0000    0.0000 N   0  0  0  0  0  0  0  0  0  0  0  0
    0.0000    0.0000    0.0000 C   0  0  0  0  0  0  0  0  0  0  0  0
    0.0000    0.0000    0.0000 C   0  0  0  0  0  0  0  0  0  0  0  0
    0.0000    0.0000    0.0000 C   0  0  0  0  0  0  0  0  0  0  0  0
    0.0000    0.0000    0.0000 C   0  0  0  0  0  0  0  0  0  0  0  0
    0.0000    0.0000    0.0000 N   0  0  0  0  0  0  0  0  0  0  0  0
    0.0000    0.0000    0.0000 C   0  0  0  0  0  0  0  0  0  0  0  0
    0.0000    0.0000    0.0000 N   0  0  0  0  0  0  0  0  0  0  0  0
    0.0000    0.0000    0.0000 C   0  0  0  0  0  0  0  0  0  0  0  0
    0.0000    0.0000    0.0000 N   0  0  0  0  0  0  0  0  0  0  0  0
    0.0000    0.0000    0.0000 C   0  0  0  0  0  0  0  0  0  0  0  0
  1  2  1  0
  2  3  1  0
  3  4  1  0
  4  5  2  0
  5  6  1  0
  6  7  2  0
  7  8  1  0
  8  9  2  0
  9 10  1  0
 10 11  2  0
 11 12  1  0
 12 13  2  0
  9 14  1  0
 14 15  2  0
 15 16  1  0
 16 17  1  0
 17 18  1  0
 18 19  1  0
 19 20  1  0
 20 21  1  0
 21 22  1  0
 21 23  1  0
 23 24  1  0
 16 25  1  0
 25 26  2  0
 26 27  1  0
 27 28  2  0
 28 29  1  0
 29 30  1  0
 29 31  2  0
 13  4  1  0
 12  7  1  0
 31 14  1  0
 24 18  1  0
 31 25  1  0
M  END
>  <pIC50>  (539) 
5.34

>  <ChEMBL_ID>  (539) 
CHEMBL2070081

>  <document_journal>  (539) 
J. Med. Chem.

>  <bao_endpoint>  (539) 
BAO_0000190

>  <potential_duplicate>  (539) 
False

>  <uo_units>  (539) 
UO_0000065

>  <canonical_smiles>  (539) 
Cl.CCOc1ccc2cc(ccc2c1)c3nn(CC4CCN(C)CC4)c5ncnc(N)c35

>  <parent_molecule_chembl_id>  (539) 
CHEMBL2078876

>  <assay_type>  (539) 
B

>  <src_id>  (539) 
1

>  <ligand_efficiency>  (539) 
{u'le': u'0.24', u'bei': u'12.81', u'sei': u'6.5', u'lle': u'1.57'}

>  <standard_flag>  (539) 
True

>  <molecule_chembl_id>  (539) 
CHEMBL2070081

>  <target_organism>  (539) 
Homo sapiens

>  <standard_units>  (539) 
nM

>  <record_id>  (539) 
1662000

>  <document_chembl_id>  (539) 
CHEMBL2069256

>  <bao_format>  (539) 
BAO_0000357

>  <data_validity_description>  (539) 
None

>  <activity_id>  (539) 
10991119

>  <standard_type>  (539) 
IC50

>  <target_chembl_id>  (539) 
CHEMBL1862

>  <data_validity_comment>  (539) 
None

>  <published_value>  (539) 
4.6

>  <document_year>  (539) 
2012

>  <target_pref_name>  (539) 
Tyrosine-protein kinase ABL

>  <assay_chembl_id>  (539) 
CHEMBL2072944

>  <standard_relation>  (539) 
=

>  <assay_description>  (539) 
Inhibition of human ABL using EAIYAAPFAKKK-OH as substrate by phosphor imaging method

>  <published_relation>  (539) 
=

>  <standard_value>  (539) 
4600

>  <qudt_units>  (539) 
http://www.openphacts.org/units/Nanomolar

>  <target_tax_id>  (539) 
9606

>  <bao_label>  (539) 
single protein format

>  <published_units>  (539) 
uM

>  <pchembl_value>  (539) 
5.34

>  <published_type>  (539) 
IC50

>  <activity_comment>  (539) 
None

$$$$

     RDKit          

 28 31  0  0  0  0  0  0  0  0999 V2000
    0.0000    0.0000    0.0000 C   0  0  0  0  0  0  0  0  0  0  0  0
    0.0000    0.0000    0.0000 C   0  0  0  0  0  0  0  0  0  0  0  0
    0.0000    0.0000    0.0000 C   0  0  0  0  0  0  0  0  0  0  0  0
    0.0000    0.0000    0.0000 O   0  0  0  0  0  0  0  0  0  0  0  0
    0.0000    0.0000    0.0000 C   0  0  0  0  0  0  0  0  0  0  0  0
    0.0000    0.0000    0.0000 C   0  0  0  0  0  0  0  0  0  0  0  0
    0.0000    0.0000    0.0000 C   0  0  0  0  0  0  0  0  0  0  0  0
    0.0000    0.0000    0.0000 N   0  0  0  0  0  0  0  0  0  0  0  0
    0.0000    0.0000    0.0000 N   0  0  0  0  0  0  0  0  0  0  0  0
    0.0000    0.0000    0.0000 N   0  0  0  0  0  0  0  0  0  0  0  0
    0.0000    0.0000    0.0000 C   0  0  0  0  0  0  0  0  0  0  0  0
    0.0000    0.0000    0.0000 N   0  0  0  0  0  0  0  0  0  0  0  0
    0.0000    0.0000    0.0000 C   0  0  0  0  0  0  0  0  0  0  0  0
    0.0000    0.0000    0.0000 C   0  0  0  0  0  0  0  0  0  0  0  0
    0.0000    0.0000    0.0000 C   0  0  0  0  0  0  0  0  0  0  0  0
    0.0000    0.0000    0.0000 C   0  0  0  0  0  0  0  0  0  0  0  0
    0.0000    0.0000    0.0000 N   0  0  0  0  0  0  0  0  0  0  0  0
    0.0000    0.0000    0.0000 C   0  0  0  0  0  0  0  0  0  0  0  0
    0.0000    0.0000    0.0000 C   0  0  0  0  0  0  0  0  0  0  0  0
    0.0000    0.0000    0.0000 C   0  0  0  0  0  0  0  0  0  0  0  0
    0.0000    0.0000    0.0000 C   0  0  0  0  0  0  0  0  0  0  0  0
    0.0000    0.0000    0.0000 C   0  0  0  0  0  0  0  0  0  0  0  0
    0.0000    0.0000    0.0000 C   0  0  0  0  0  0  0  0  0  0  0  0
    0.0000    0.0000    0.0000 F   0  0  0  0  0  0  0  0  0  0  0  0
    0.0000    0.0000    0.0000 C   0  0  0  0  0  0  0  0  0  0  0  0
    0.0000    0.0000    0.0000 N   0  0  0  0  0  0  0  0  0  0  0  0
    0.0000    0.0000    0.0000 N   0  0  0  0  0  0  0  0  0  0  0  0
    0.0000    0.0000    0.0000 C   0  0  0  0  0  0  0  0  0  0  0  0
  1  2  1  0
  2  3  1  0
  2  4  1  0
  4  5  1  0
  5  6  2  0
  6  7  1  0
  7  8  2  0
  8  9  1  0
  7 10  1  0
 10 11  1  0
 11 12  2  0
 12 13  1  0
 13 14  2  0
 14 15  1  0
 15 16  2  0
 16 17  1  0
 17 18  1  0
 18 19  1  0
 18 20  1  0
 20 21  2  0
 21 22  1  0
 22 23  2  0
 23 24  1  0
 23 25  1  0
 25 26  2  0
 16 27  1  0
 27 28  2  0
  9  5  1  0
 28 10  1  0
 28 13  1  0
 26 20  1  0
M  END
>  <pIC50>  (540) 
8.92

>  <ChEMBL_ID>  (540) 
CHEMBL2151321

>  <document_journal>  (540) 
ACS Med. Chem. Lett.

>  <bao_endpoint>  (540) 
BAO_0000190

>  <potential_duplicate>  (540) 
False

>  <uo_units>  (540) 
UO_0000065

>  <canonical_smiles>  (540) 
CC(C)Oc1cc(n[nH]1)n2cnc3ccc(N[C@@H](C)c4ccc(F)cn4)nc23

>  <parent_molecule_chembl_id>  (540) 
CHEMBL2151321

>  <assay_type>  (540) 
B

>  <src_id>  (540) 
1

>  <ligand_efficiency>  (540) 
{u'le': u'0.44', u'bei': u'23.39', u'sei': u'9.54', u'lle': u'5.24'}

>  <standard_flag>  (540) 
True

>  <molecule_chembl_id>  (540) 
CHEMBL2151321

>  <target_organism>  (540) 
Homo sapiens

>  <standard_units>  (540) 
nM

>  <record_id>  (540) 
1729702

>  <document_chembl_id>  (540) 
CHEMBL2150905

>  <bao_format>  (540) 
BAO_0000357

>  <data_validity_description>  (540) 
None

>  <activity_id>  (540) 
12051561

>  <standard_type>  (540) 
IC50

>  <target_chembl_id>  (540) 
CHEMBL1862

>  <data_validity_comment>  (540) 
None

>  <published_value>  (540) 
1.2

>  <document_year>  (540) 
2012

>  <target_pref_name>  (540) 
Tyrosine-protein kinase ABL

>  <assay_chembl_id>  (540) 
CHEMBL2154701

>  <standard_relation>  (540) 
=

>  <assay_description>  (540) 
Inhibition of Abl

>  <published_relation>  (540) 
=

>  <standard_value>  (540) 
1.2

>  <qudt_units>  (540) 
http://www.openphacts.org/units/Nanomolar

>  <target_tax_id>  (540) 
9606

>  <bao_label>  (540) 
single protein format

>  <published_units>  (540) 
nM

>  <pchembl_value>  (540) 
8.92

>  <published_type>  (540) 
IC50

>  <activity_comment>  (540) 
None

$$$$

     RDKit          

 24 27  0  0  0  0  0  0  0  0999 V2000
    0.0000    0.0000    0.0000 C   0  0  0  0  0  0  0  0  0  0  0  0
    0.0000    0.0000    0.0000 C   0  0  0  0  0  0  0  0  0  0  0  0
    0.0000    0.0000    0.0000 C   0  0  0  0  0  0  0  0  0  0  0  0
    0.0000    0.0000    0.0000 C   0  0  0  0  0  0  0  0  0  0  0  0
    0.0000    0.0000    0.0000 C   0  0  0  0  0  0  0  0  0  0  0  0
    0.0000    0.0000    0.0000 O   0  0  0  0  0  0  0  0  0  0  0  0
    0.0000    0.0000    0.0000 C   0  0  0  0  0  0  0  0  0  0  0  0
    0.0000    0.0000    0.0000 C   0  0  0  0  0  0  0  0  0  0  0  0
    0.0000    0.0000    0.0000 N   0  0  0  0  0  0  0  0  0  0  0  0
    0.0000    0.0000    0.0000 C   0  0  0  0  0  0  0  0  0  0  0  0
    0.0000    0.0000    0.0000 O   0  0  0  0  0  0  0  0  0  0  0  0
    0.0000    0.0000    0.0000 C   0  0  0  0  0  0  0  0  0  0  0  0
    0.0000    0.0000    0.0000 C   0  0  0  0  0  0  0  0  0  0  0  0
    0.0000    0.0000    0.0000 C   0  0  0  0  0  0  0  0  0  0  0  0
    0.0000    0.0000    0.0000 C   0  0  0  0  0  0  0  0  0  0  0  0
    0.0000    0.0000    0.0000 C   0  0  0  0  0  0  0  0  0  0  0  0
    0.0000    0.0000    0.0000 C   0  0  0  0  0  0  0  0  0  0  0  0
    0.0000    0.0000    0.0000 C   0  0  0  0  0  0  0  0  0  0  0  0
    0.0000    0.0000    0.0000 C   0  0  0  0  0  0  0  0  0  0  0  0
    0.0000    0.0000    0.0000 N   0  0  0  0  0  0  0  0  0  0  0  0
    0.0000    0.0000    0.0000 N   0  0  0  0  0  0  0  0  0  0  0  0
    0.0000    0.0000    0.0000 C   0  0  0  0  0  0  0  0  0  0  0  0
    0.0000    0.0000    0.0000 N   0  0  0  0  0  0  0  0  0  0  0  0
    0.0000    0.0000    0.0000 C   0  0  0  0  0  0  0  0  0  0  0  0
  1  2  1  0
  2  3  2  0
  3  4  1  0
  4  5  2  0
  5  6  1  0
  5  7  1  0
  7  8  2  0
  8  9  1  0
  9 10  1  0
 10 11  2  0
 10 12  1  0
 12 13  2  0
 13 14  1  0
 14 15  1  0
 15 16  1  0
 16 17  1  0
 13 18  1  0
 18 19  2  0
 19 20  1  0
 19 21  1  0
 21 22  2  0
 22 23  1  0
 23 24  2  0
  8  2  1  0
 24  9  1  0
 17 12  1  0
 24 18  1  0
M  END
>  <pIC50>  (541) 
6.06

>  <ChEMBL_ID>  (541) 
CHEMBL2152704

>  <document_journal>  (541) 
ACS Med. Chem. Lett.

>  <bao_endpoint>  (541) 
BAO_0000190

>  <potential_duplicate>  (541) 
False

>  <uo_units>  (541) 
UO_0000065

>  <canonical_smiles>  (541) 
Cc1ccc(O)cc1N2C(=O)C3=C(CCCC3)c4c(N)ncnc24

>  <parent_molecule_chembl_id>  (541) 
CHEMBL2152704

>  <assay_type>  (541) 
B

>  <src_id>  (541) 
1

>  <ligand_efficiency>  (541) 
{u'le': u'0.35', u'bei': u'18.81', u'sei': u'6.57', u'lle': u'2.79'}

>  <standard_flag>  (541) 
True

>  <molecule_chembl_id>  (541) 
CHEMBL2152704

>  <target_organism>  (541) 
Homo sapiens

>  <standard_units>  (541) 
nM

>  <record_id>  (541) 
1731471

>  <document_chembl_id>  (541) 
CHEMBL2150975

>  <bao_format>  (541) 
BAO_0000357

>  <data_validity_description>  (541) 
None

>  <activity_id>  (541) 
12057078

>  <standard_type>  (541) 
IC50

>  <target_chembl_id>  (541) 
CHEMBL1862

>  <data_validity_comment>  (541) 
None

>  <published_value>  (541) 
0.864

>  <document_year>  (541) 
2012

>  <target_pref_name>  (541) 
Tyrosine-protein kinase ABL

>  <assay_chembl_id>  (541) 
CHEMBL2154037

>  <standard_relation>  (541) 
=

>  <assay_description>  (541) 
Inhibition of recombinant Abl1 catalytic domain in presence of 1 uM radiolabeled ATP

>  <published_relation>  (541) 
=

>  <standard_value>  (541) 
864

>  <qudt_units>  (541) 
http://www.openphacts.org/units/Nanomolar

>  <target_tax_id>  (541) 
9606

>  <bao_label>  (541) 
single protein format

>  <published_units>  (541) 
uM

>  <pchembl_value>  (541) 
6.06

>  <published_type>  (541) 
IC50

>  <activity_comment>  (541) 
None

$$$$

     RDKit          

 36 40  0  0  0  0  0  0  0  0999 V2000
    0.0000    0.0000    0.0000 C   0  0  0  0  0  0  0  0  0  0  0  0
    0.0000    0.0000    0.0000 C   0  0  0  0  0  0  0  0  0  0  0  0
    0.0000    0.0000    0.0000 C   0  0  0  0  0  0  0  0  0  0  0  0
    0.0000    0.0000    0.0000 C   0  0  0  0  0  0  0  0  0  0  0  0
    0.0000    0.0000    0.0000 N   0  0  0  0  0  0  0  0  0  0  0  0
    0.0000    0.0000    0.0000 C   0  0  0  0  0  0  0  0  0  0  0  0
    0.0000    0.0000    0.0000 O   0  0  0  0  0  0  0  0  0  0  0  0
    0.0000    0.0000    0.0000 C   0  0  0  0  0  0  0  0  0  0  0  0
    0.0000    0.0000    0.0000 C   0  0  0  0  0  0  0  0  0  0  0  0
    0.0000    0.0000    0.0000 C   0  0  0  0  0  0  0  0  0  0  0  0
    0.0000    0.0000    0.0000 C   0  0  0  0  0  0  0  0  0  0  0  0
    0.0000    0.0000    0.0000 C   0  0  0  0  0  0  0  0  0  0  0  0
    0.0000    0.0000    0.0000 C   0  0  0  0  0  0  0  0  0  0  0  0
    0.0000    0.0000    0.0000 N   0  0  0  0  0  0  0  0  0  0  0  0
    0.0000    0.0000    0.0000 C   0  0  0  0  0  0  0  0  0  0  0  0
    0.0000    0.0000    0.0000 N   0  0  0  0  0  0  0  0  0  0  0  0
    0.0000    0.0000    0.0000 C   0  0  0  0  0  0  0  0  0  0  0  0
    0.0000    0.0000    0.0000 C   0  0  0  0  0  0  0  0  0  0  0  0
    0.0000    0.0000    0.0000 C   0  0  0  0  0  0  0  0  0  0  0  0
    0.0000    0.0000    0.0000 N   0  0  0  0  0  0  0  0  0  0  0  0
    0.0000    0.0000    0.0000 C   0  0  0  0  0  0  0  0  0  0  0  0
    0.0000    0.0000    0.0000 C   0  0  0  0  0  0  0  0  0  0  0  0
    0.0000    0.0000    0.0000 C   0  0  0  0  0  0  0  0  0  0  0  0
    0.0000    0.0000    0.0000 C   0  0  0  0  0  0  0  0  0  0  0  0
    0.0000    0.0000    0.0000 N   0  0  0  0  0  0  0  0  0  0  0  0
    0.0000    0.0000    0.0000 C   0  0  0  0  0  0  0  0  0  0  0  0
    0.0000    0.0000    0.0000 C   0  0  0  0  0  0  0  0  0  0  0  0
    0.0000    0.0000    0.0000 C   0  0  0  0  0  0  0  0  0  0  0  0
    0.0000    0.0000    0.0000 C   0  0  0  0  0  0  0  0  0  0  0  0
    0.0000    0.0000    0.0000 C   0  0  0  0  0  0  0  0  0  0  0  0
    0.0000    0.0000    0.0000 N   0  0  0  0  0  0  0  0  0  0  0  0
    0.0000    0.0000    0.0000 C   0  0  0  0  0  0  0  0  0  0  0  0
    0.0000    0.0000    0.0000 N   0  0  0  0  0  0  0  0  0  0  0  0
    0.0000    0.0000    0.0000 C   0  0  0  0  0  0  0  0  0  0  0  0
    0.0000    0.0000    0.0000 C   0  0  0  0  0  0  0  0  0  0  0  0
    0.0000    0.0000    0.0000 C   0  0  0  0  0  0  0  0  0  0  0  0
  1  2  1  0
  2  3  2  0
  3  4  1  0
  4  5  1  0
  5  6  1  0
  6  7  2  0
  6  8  1  0
  8  9  2  0
  9 10  1  0
 10 11  2  0
 11 12  1  0
 11 13  1  0
 13 14  1  0
 14 15  1  0
 15 16  2  0
 16 17  1  0
 17 18  2  0
 18 19  1  0
 19 20  2  0
 19 21  1  0
 21 22  2  0
 22 23  1  0
 23 24  2  0
 24 25  1  0
 25 26  2  0
 13 27  2  0
  4 28  2  0
 28 29  1  0
 29 30  2  0
 29 31  1  0
 31 32  1  0
 32 33  2  0
 33 34  1  0
 34 35  1  0
 34 36  2  0
 30  2  1  0
 27  8  1  0
 20 15  1  0
 26 21  1  0
 36 31  1  0
M  END
>  <pIC50>  (542) 
6.87

>  <ChEMBL_ID>  (542) 
CHEMBL2311806

>  <document_journal>  (542) 
Bioorg. Med. Chem. Lett.

>  <bao_endpoint>  (542) 
BAO_0000190

>  <potential_duplicate>  (542) 
False

>  <uo_units>  (542) 
UO_0000065

>  <canonical_smiles>  (542) 
Cc1cc(NC(=O)c2ccc(C)c(Nc3nccc(n3)c4cccnc4)c2)cc(c1)n5cnc(C)c5

>  <parent_molecule_chembl_id>  (542) 
CHEMBL2311806

>  <assay_type>  (542) 
B

>  <src_id>  (542) 
1

>  <ligand_efficiency>  (542) 
{u'le': u'0.26', u'bei': u'14.44', u'sei': u'7.03', u'lle': u'2.24'}

>  <standard_flag>  (542) 
True

>  <molecule_chembl_id>  (542) 
CHEMBL2311806

>  <target_organism>  (542) 
Homo sapiens

>  <standard_units>  (542) 
nM

>  <record_id>  (542) 
1841283

>  <document_chembl_id>  (542) 
CHEMBL2311368

>  <bao_format>  (542) 
BAO_0000357

>  <data_validity_description>  (542) 
None

>  <activity_id>  (542) 
12617276

>  <standard_type>  (542) 
IC50

>  <target_chembl_id>  (542) 
CHEMBL1862

>  <data_validity_comment>  (542) 
None

>  <published_value>  (542) 
135.8

>  <document_year>  (542) 
2013

>  <target_pref_name>  (542) 
Tyrosine-protein kinase ABL

>  <assay_chembl_id>  (542) 
CHEMBL2319492

>  <standard_relation>  (542) 
=

>  <assay_description>  (542) 
Inhibition of human ABL1 using EAIYAAPFAKKK peptide substrate

>  <published_relation>  (542) 
=

>  <standard_value>  (542) 
135.8

>  <qudt_units>  (542) 
http://www.openphacts.org/units/Nanomolar

>  <target_tax_id>  (542) 
9606

>  <bao_label>  (542) 
single protein format

>  <published_units>  (542) 
nM

>  <pchembl_value>  (542) 
6.87

>  <published_type>  (542) 
IC50

>  <activity_comment>  (542) 
None

$$$$

     RDKit          

 36 40  0  0  0  0  0  0  0  0999 V2000
    0.0000    0.0000    0.0000 C   0  0  0  0  0  0  0  0  0  0  0  0
    0.0000    0.0000    0.0000 C   0  0  0  0  0  0  0  0  0  0  0  0
    0.0000    0.0000    0.0000 C   0  0  0  0  0  0  0  0  0  0  0  0
    0.0000    0.0000    0.0000 N   0  0  0  0  0  0  0  0  0  0  0  0
    0.0000    0.0000    0.0000 C   0  0  0  0  0  0  0  0  0  0  0  0
    0.0000    0.0000    0.0000 N   0  0  0  0  0  0  0  0  0  0  0  0
    0.0000    0.0000    0.0000 C   0  0  0  0  0  0  0  0  0  0  0  0
    0.0000    0.0000    0.0000 C   0  0  0  0  0  0  0  0  0  0  0  0
    0.0000    0.0000    0.0000 C   0  0  0  0  0  0  0  0  0  0  0  0
    0.0000    0.0000    0.0000 F   0  0  0  0  0  0  0  0  0  0  0  0
    0.0000    0.0000    0.0000 C   0  0  0  0  0  0  0  0  0  0  0  0
    0.0000    0.0000    0.0000 C   0  0  0  0  0  0  0  0  0  0  0  0
    0.0000    0.0000    0.0000 N   0  0  0  0  0  0  0  0  0  0  0  0
    0.0000    0.0000    0.0000 C   0  0  0  0  0  0  0  0  0  0  0  0
    0.0000    0.0000    0.0000 O   0  0  0  0  0  0  0  0  0  0  0  0
    0.0000    0.0000    0.0000 C   0  0  0  0  0  0  0  0  0  0  0  0
    0.0000    0.0000    0.0000 C   0  0  0  0  0  0  0  0  0  0  0  0
    0.0000    0.0000    0.0000 C   0  0  0  0  0  0  0  0  0  0  0  0
    0.0000    0.0000    0.0000 C   0  0  0  0  0  0  0  0  0  0  0  0
    0.0000    0.0000    0.0000 C   0  0  0  0  0  0  0  0  0  0  0  0
    0.0000    0.0000    0.0000 C   0  0  0  0  0  0  0  0  0  0  0  0
    0.0000    0.0000    0.0000 N   0  0  0  0  0  0  0  0  0  0  0  0
    0.0000    0.0000    0.0000 C   0  0  0  0  0  0  0  0  0  0  0  0
    0.0000    0.0000    0.0000 N   0  0  0  0  0  0  0  0  0  0  0  0
    0.0000    0.0000    0.0000 C   0  0  0  0  0  0  0  0  0  0  0  0
    0.0000    0.0000    0.0000 C   0  0  0  0  0  0  0  0  0  0  0  0
    0.0000    0.0000    0.0000 C   0  0  0  0  0  0  0  0  0  0  0  0
    0.0000    0.0000    0.0000 N   0  0  0  0  0  0  0  0  0  0  0  0
    0.0000    0.0000    0.0000 C   0  0  0  0  0  0  0  0  0  0  0  0
    0.0000    0.0000    0.0000 C   0  0  0  0  0  0  0  0  0  0  0  0
    0.0000    0.0000    0.0000 C   0  0  0  0  0  0  0  0  0  0  0  0
    0.0000    0.0000    0.0000 C   0  0  0  0  0  0  0  0  0  0  0  0
    0.0000    0.0000    0.0000 N   0  0  0  0  0  0  0  0  0  0  0  0
    0.0000    0.0000    0.0000 C   0  0  0  0  0  0  0  0  0  0  0  0
    0.0000    0.0000    0.0000 C   0  0  0  0  0  0  0  0  0  0  0  0
    0.0000    0.0000    0.0000 C   0  0  0  0  0  0  0  0  0  0  0  0
  1  2  1  0
  2  3  2  0
  3  4  1  0
  4  5  1  0
  5  6  2  0
  4  7  1  0
  7  8  2  0
  8  9  1  0
  9 10  1  0
  9 11  2  0
 11 12  1  0
 12 13  1  0
 13 14  1  0
 14 15  2  0
 14 16  1  0
 16 17  2  0
 17 18  1  0
 18 19  2  0
 19 20  1  0
 19 21  1  0
 21 22  1  0
 22 23  1  0
 23 24  2  0
 24 25  1  0
 25 26  2  0
 26 27  1  0
 27 28  2  0
 27 29  1  0
 29 30  2  0
 30 31  1  0
 31 32  2  0
 32 33  1  0
 33 34  2  0
 21 35  2  0
 12 36  2  0
  6  2  1  0
 36  7  1  0
 35 16  1  0
 28 23  1  0
 34 29  1  0
M  END
>  <pIC50>  (543) 
6.13

>  <ChEMBL_ID>  (543) 
CHEMBL2311807

>  <document_journal>  (543) 
Bioorg. Med. Chem. Lett.

>  <bao_endpoint>  (543) 
BAO_0000190

>  <potential_duplicate>  (543) 
False

>  <uo_units>  (543) 
UO_0000065

>  <canonical_smiles>  (543) 
Cc1cn(cn1)c2cc(F)cc(NC(=O)c3ccc(C)c(Nc4nccc(n4)c5cccnc5)c3)c2

>  <parent_molecule_chembl_id>  (543) 
CHEMBL2311807

>  <assay_type>  (543) 
B

>  <src_id>  (543) 
1

>  <ligand_efficiency>  (543) 
{u'le': u'0.23', u'bei': u'12.77', u'sei': u'6.27', u'lle': u'1.78'}

>  <standard_flag>  (543) 
True

>  <molecule_chembl_id>  (543) 
CHEMBL2311807

>  <target_organism>  (543) 
Homo sapiens

>  <standard_units>  (543) 
nM

>  <record_id>  (543) 
1841284

>  <document_chembl_id>  (543) 
CHEMBL2311368

>  <bao_format>  (543) 
BAO_0000357

>  <data_validity_description>  (543) 
None

>  <activity_id>  (543) 
12617295

>  <standard_type>  (543) 
IC50

>  <target_chembl_id>  (543) 
CHEMBL1862

>  <data_validity_comment>  (543) 
None

>  <published_value>  (543) 
749.8

>  <document_year>  (543) 
2013

>  <target_pref_name>  (543) 
Tyrosine-protein kinase ABL

>  <assay_chembl_id>  (543) 
CHEMBL2319492

>  <standard_relation>  (543) 
=

>  <assay_description>  (543) 
Inhibition of human ABL1 using EAIYAAPFAKKK peptide substrate

>  <published_relation>  (543) 
=

>  <standard_value>  (543) 
749.8

>  <qudt_units>  (543) 
http://www.openphacts.org/units/Nanomolar

>  <target_tax_id>  (543) 
9606

>  <bao_label>  (543) 
single protein format

>  <published_units>  (543) 
nM

>  <pchembl_value>  (543) 
6.13

>  <published_type>  (543) 
IC50

>  <activity_comment>  (543) 
None

$$$$

     RDKit          

 35 39  0  0  0  0  0  0  0  0999 V2000
    0.0000    0.0000    0.0000 C   0  0  0  0  0  0  0  0  0  0  0  0
    0.0000    0.0000    0.0000 C   0  0  0  0  0  0  0  0  0  0  0  0
    0.0000    0.0000    0.0000 C   0  0  0  0  0  0  0  0  0  0  0  0
    0.0000    0.0000    0.0000 N   0  0  0  0  0  0  0  0  0  0  0  0
    0.0000    0.0000    0.0000 C   0  0  0  0  0  0  0  0  0  0  0  0
    0.0000    0.0000    0.0000 N   0  0  0  0  0  0  0  0  0  0  0  0
    0.0000    0.0000    0.0000 C   0  0  0  0  0  0  0  0  0  0  0  0
    0.0000    0.0000    0.0000 C   0  0  0  0  0  0  0  0  0  0  0  0
    0.0000    0.0000    0.0000 C   0  0  0  0  0  0  0  0  0  0  0  0
    0.0000    0.0000    0.0000 C   0  0  0  0  0  0  0  0  0  0  0  0
    0.0000    0.0000    0.0000 C   0  0  0  0  0  0  0  0  0  0  0  0
    0.0000    0.0000    0.0000 N   0  0  0  0  0  0  0  0  0  0  0  0
    0.0000    0.0000    0.0000 C   0  0  0  0  0  0  0  0  0  0  0  0
    0.0000    0.0000    0.0000 O   0  0  0  0  0  0  0  0  0  0  0  0
    0.0000    0.0000    0.0000 C   0  0  0  0  0  0  0  0  0  0  0  0
    0.0000    0.0000    0.0000 C   0  0  0  0  0  0  0  0  0  0  0  0
    0.0000    0.0000    0.0000 C   0  0  0  0  0  0  0  0  0  0  0  0
    0.0000    0.0000    0.0000 C   0  0  0  0  0  0  0  0  0  0  0  0
    0.0000    0.0000    0.0000 C   0  0  0  0  0  0  0  0  0  0  0  0
    0.0000    0.0000    0.0000 C   0  0  0  0  0  0  0  0  0  0  0  0
    0.0000    0.0000    0.0000 N   0  0  0  0  0  0  0  0  0  0  0  0
    0.0000    0.0000    0.0000 C   0  0  0  0  0  0  0  0  0  0  0  0
    0.0000    0.0000    0.0000 N   0  0  0  0  0  0  0  0  0  0  0  0
    0.0000    0.0000    0.0000 C   0  0  0  0  0  0  0  0  0  0  0  0
    0.0000    0.0000    0.0000 C   0  0  0  0  0  0  0  0  0  0  0  0
    0.0000    0.0000    0.0000 C   0  0  0  0  0  0  0  0  0  0  0  0
    0.0000    0.0000    0.0000 N   0  0  0  0  0  0  0  0  0  0  0  0
    0.0000    0.0000    0.0000 C   0  0  0  0  0  0  0  0  0  0  0  0
    0.0000    0.0000    0.0000 C   0  0  0  0  0  0  0  0  0  0  0  0
    0.0000    0.0000    0.0000 C   0  0  0  0  0  0  0  0  0  0  0  0
    0.0000    0.0000    0.0000 C   0  0  0  0  0  0  0  0  0  0  0  0
    0.0000    0.0000    0.0000 N   0  0  0  0  0  0  0  0  0  0  0  0
    0.0000    0.0000    0.0000 C   0  0  0  0  0  0  0  0  0  0  0  0
    0.0000    0.0000    0.0000 C   0  0  0  0  0  0  0  0  0  0  0  0
    0.0000    0.0000    0.0000 C   0  0  0  0  0  0  0  0  0  0  0  0
  1  2  1  0
  2  3  2  0
  3  4  1  0
  4  5  1  0
  5  6  2  0
  4  7  1  0
  7  8  2  0
  8  9  1  0
  9 10  2  0
 10 11  1  0
 11 12  1  0
 12 13  1  0
 13 14  2  0
 13 15  1  0
 15 16  2  0
 16 17  1  0
 17 18  2  0
 18 19  1  0
 18 20  1  0
 20 21  1  0
 21 22  1  0
 22 23  2  0
 23 24  1  0
 24 25  2  0
 25 26  1  0
 26 27  2  0
 26 28  1  0
 28 29  2  0
 29 30  1  0
 30 31  2  0
 31 32  1  0
 32 33  2  0
 20 34  2  0
 11 35  2  0
  6  2  1  0
 35  7  1  0
 34 15  1  0
 27 22  1  0
 33 28  1  0
M  END
>  <pIC50>  (544) 
5.53

>  <ChEMBL_ID>  (544) 
CHEMBL2311808

>  <document_journal>  (544) 
Bioorg. Med. Chem. Lett.

>  <bao_endpoint>  (544) 
BAO_0000190

>  <potential_duplicate>  (544) 
False

>  <uo_units>  (544) 
UO_0000065

>  <canonical_smiles>  (544) 
Cc1cn(cn1)c2cccc(NC(=O)c3ccc(C)c(Nc4nccc(n4)c5cccnc5)c3)c2

>  <parent_molecule_chembl_id>  (544) 
CHEMBL2311808

>  <assay_type>  (544) 
B

>  <src_id>  (544) 
1

>  <ligand_efficiency>  (544) 
{u'le': u'0.22', u'bei': u'11.98', u'sei': u'5.66', u'lle': u'1.39'}

>  <standard_flag>  (544) 
True

>  <molecule_chembl_id>  (544) 
CHEMBL2311808

>  <target_organism>  (544) 
Homo sapiens

>  <standard_units>  (544) 
nM

>  <record_id>  (544) 
1841285

>  <document_chembl_id>  (544) 
CHEMBL2311368

>  <bao_format>  (544) 
BAO_0000357

>  <data_validity_description>  (544) 
None

>  <activity_id>  (544) 
12617314

>  <standard_type>  (544) 
IC50

>  <target_chembl_id>  (544) 
CHEMBL1862

>  <data_validity_comment>  (544) 
None

>  <published_value>  (544) 
2953

>  <document_year>  (544) 
2013

>  <target_pref_name>  (544) 
Tyrosine-protein kinase ABL

>  <assay_chembl_id>  (544) 
CHEMBL2319492

>  <standard_relation>  (544) 
=

>  <assay_description>  (544) 
Inhibition of human ABL1 using EAIYAAPFAKKK peptide substrate

>  <published_relation>  (544) 
=

>  <standard_value>  (544) 
2953

>  <qudt_units>  (544) 
http://www.openphacts.org/units/Nanomolar

>  <target_tax_id>  (544) 
9606

>  <bao_label>  (544) 
single protein format

>  <published_units>  (544) 
nM

>  <pchembl_value>  (544) 
5.53

>  <published_type>  (544) 
IC50

>  <activity_comment>  (544) 
None

$$$$

     RDKit          

 39 43  0  0  0  0  0  0  0  0999 V2000
    0.0000    0.0000    0.0000 C   0  0  0  0  0  0  0  0  0  0  0  0
    0.0000    0.0000    0.0000 N   0  0  0  0  0  0  0  0  0  0  0  0
    0.0000    0.0000    0.0000 C   0  0  0  0  0  0  0  0  0  0  0  0
    0.0000    0.0000    0.0000 C   0  0  0  0  0  0  0  0  0  0  0  0
    0.0000    0.0000    0.0000 N   0  0  0  0  0  0  0  0  0  0  0  0
    0.0000    0.0000    0.0000 C   0  0  0  0  0  0  0  0  0  0  0  0
    0.0000    0.0000    0.0000 C   0  0  0  0  0  0  0  0  0  0  0  0
    0.0000    0.0000    0.0000 C   0  0  0  0  0  0  0  0  0  0  0  0
    0.0000    0.0000    0.0000 C   0  0  0  0  0  0  0  0  0  0  0  0
    0.0000    0.0000    0.0000 C   0  0  0  0  0  0  0  0  0  0  0  0
    0.0000    0.0000    0.0000 N   0  0  0  0  0  0  0  0  0  0  0  0
    0.0000    0.0000    0.0000 C   0  0  0  0  0  0  0  0  0  0  0  0
    0.0000    0.0000    0.0000 O   0  0  0  0  0  0  0  0  0  0  0  0
    0.0000    0.0000    0.0000 C   0  0  0  0  0  0  0  0  0  0  0  0
    0.0000    0.0000    0.0000 C   0  0  0  0  0  0  0  0  0  0  0  0
    0.0000    0.0000    0.0000 C   0  0  0  0  0  0  0  0  0  0  0  0
    0.0000    0.0000    0.0000 C   0  0  0  0  0  0  0  0  0  0  0  0
    0.0000    0.0000    0.0000 C   0  0  0  0  0  0  0  0  0  0  0  0
    0.0000    0.0000    0.0000 C   0  0  0  0  0  0  0  0  0  0  0  0
    0.0000    0.0000    0.0000 C   0  0  0  0  0  0  0  0  0  0  0  0
    0.0000    0.0000    0.0000 C   0  0  0  0  0  0  0  0  0  0  0  0
    0.0000    0.0000    0.0000 C   0  0  0  0  0  0  0  0  0  0  0  0
    0.0000    0.0000    0.0000 C   0  0  0  0  0  0  0  0  0  0  0  0
    0.0000    0.0000    0.0000 C   0  0  0  0  0  0  0  0  0  0  0  0
    0.0000    0.0000    0.0000 N   0  0  0  0  0  0  0  0  0  0  0  0
    0.0000    0.0000    0.0000 C   0  0  0  0  0  0  0  0  0  0  0  0
    0.0000    0.0000    0.0000 N   0  0  0  0  0  0  0  0  0  0  0  0
    0.0000    0.0000    0.0000 C   0  0  0  0  0  0  0  0  0  0  0  0
    0.0000    0.0000    0.0000 N   0  0  0  0  0  0  0  0  0  0  0  0
    0.0000    0.0000    0.0000 N   0  0  0  0  0  0  0  0  0  0  0  0
    0.0000    0.0000    0.0000 C   0  0  0  0  0  0  0  0  0  0  0  0
    0.0000    0.0000    0.0000 C   0  0  0  0  0  0  0  0  0  0  0  0
    0.0000    0.0000    0.0000 C   0  0  0  0  0  0  0  0  0  0  0  0
    0.0000    0.0000    0.0000 C   0  0  0  0  0  0  0  0  0  0  0  0
    0.0000    0.0000    0.0000 F   0  0  0  0  0  0  0  0  0  0  0  0
    0.0000    0.0000    0.0000 F   0  0  0  0  0  0  0  0  0  0  0  0
    0.0000    0.0000    0.0000 F   0  0  0  0  0  0  0  0  0  0  0  0
    0.0000    0.0000    0.0000 C   0  0  0  0  0  0  0  0  0  0  0  0
    0.0000    0.0000    0.0000 C   0  0  0  0  0  0  0  0  0  0  0  0
  1  2  1  0
  2  3  1  0
  3  4  1  0
  4  5  1  0
  5  6  1  0
  6  7  1  0
  7  8  2  0
  8  9  1  0
  9 10  2  0
 10 11  1  0
 11 12  1  0
 12 13  2  0
 12 14  1  0
 14 15  2  0
 15 16  1  0
 16 17  2  0
 17 18  1  0
 17 19  1  0
 19 20  2  0
 19 21  1  0
 21 22  3  0
 22 23  1  0
 23 24  1  0
 24 25  2  0
 25 26  1  0
 26 27  2  0
 27 28  1  0
 28 29  2  0
 29 30  1  0
 30 31  1  0
 10 32  1  0
 32 33  2  0
 33 34  1  0
 34 35  1  0
 34 36  1  0
 34 37  1  0
  5 38  1  0
 38 39  1  0
 39  2  1  0
 33  7  1  0
 20 14  1  0
 31 23  2  0
 30 26  1  0
M  END
>  <pIC50>  (545) 
8.425

>  <ChEMBL_ID>  (545) 
CHEMBL2316581

>  <document_journal>  (545) 
J. Med. Chem.

>  <bao_endpoint>  (545) 
BAO_0000190

>  <potential_duplicate>  (545) 
False

>  <uo_units>  (545) 
UO_0000065

>  <canonical_smiles>  (545) 
CN1CCN(Cc2ccc(NC(=O)c3ccc(C)c(c3)C#Cc4cnc5ncnn5c4)cc2C(F)(F)F)CC1

>  <parent_molecule_chembl_id>  (545) 
CHEMBL2316581

>  <assay_type>  (545) 
B

>  <src_id>  (545) 
1

>  <ligand_efficiency>  (545) 
{u'le': u'0.3', u'bei': u'15.91', u'sei': u'10.79', u'lle': u'3.9'}

>  <standard_flag>  (545) 
True

>  <molecule_chembl_id>  (545) 
CHEMBL2316581

>  <target_organism>  (545) 
Homo sapiens

>  <standard_units>  (545) 
nM

>  <record_id>  (545) 
1847107

>  <document_chembl_id>  (545) 
CHEMBL2311339

>  <bao_format>  (545) 
BAO_0000219

>  <data_validity_description>  (545) 
None

>  <activity_id>  (545) 
12623323

>  <standard_type>  (545) 
IC50

>  <target_chembl_id>  (545) 
CHEMBL1862

>  <data_validity_comment>  (545) 
None

>  <published_value>  (545) 
3.26

>  <document_year>  (545) 
2013

>  <target_pref_name>  (545) 
Tyrosine-protein kinase ABL

>  <assay_chembl_id>  (545) 
CHEMBL2320765

>  <standard_relation>  (545) 
=

>  <assay_description>  (545) 
Inhibition of human recombinant ABL1 Y253F mutant expressed in insect cells after 30 mins by FRET assay

>  <published_relation>  (545) 
=

>  <standard_value>  (545) 
3.26

>  <qudt_units>  (545) 
http://www.openphacts.org/units/Nanomolar

>  <target_tax_id>  (545) 
9606

>  <bao_label>  (545) 
cell-based format

>  <published_units>  (545) 
nM

>  <pchembl_value>  (545) 
8.49

>  <published_type>  (545) 
IC50

>  <activity_comment>  (545) 
None

$$$$

     RDKit          

 40 44  0  0  0  0  0  0  0  0999 V2000
    0.0000    0.0000    0.0000 C   0  0  0  0  0  0  0  0  0  0  0  0
    0.0000    0.0000    0.0000 N   0  0  0  0  0  0  0  0  0  0  0  0
    0.0000    0.0000    0.0000 C   0  0  0  0  0  0  0  0  0  0  0  0
    0.0000    0.0000    0.0000 C   0  0  0  0  0  0  0  0  0  0  0  0
    0.0000    0.0000    0.0000 N   0  0  0  0  0  0  0  0  0  0  0  0
    0.0000    0.0000    0.0000 C   0  0  0  0  0  0  0  0  0  0  0  0
    0.0000    0.0000    0.0000 C   0  0  0  0  0  0  0  0  0  0  0  0
    0.0000    0.0000    0.0000 C   0  0  0  0  0  0  0  0  0  0  0  0
    0.0000    0.0000    0.0000 C   0  0  0  0  0  0  0  0  0  0  0  0
    0.0000    0.0000    0.0000 C   0  0  0  0  0  0  0  0  0  0  0  0
    0.0000    0.0000    0.0000 N   0  0  0  0  0  0  0  0  0  0  0  0
    0.0000    0.0000    0.0000 C   0  0  0  0  0  0  0  0  0  0  0  0
    0.0000    0.0000    0.0000 O   0  0  0  0  0  0  0  0  0  0  0  0
    0.0000    0.0000    0.0000 C   0  0  0  0  0  0  0  0  0  0  0  0
    0.0000    0.0000    0.0000 C   0  0  0  0  0  0  0  0  0  0  0  0
    0.0000    0.0000    0.0000 C   0  0  0  0  0  0  0  0  0  0  0  0
    0.0000    0.0000    0.0000 C   0  0  0  0  0  0  0  0  0  0  0  0
    0.0000    0.0000    0.0000 C   0  0  0  0  0  0  0  0  0  0  0  0
    0.0000    0.0000    0.0000 C   0  0  0  0  0  0  0  0  0  0  0  0
    0.0000    0.0000    0.0000 C   0  0  0  0  0  0  0  0  0  0  0  0
    0.0000    0.0000    0.0000 C   0  0  0  0  0  0  0  0  0  0  0  0
    0.0000    0.0000    0.0000 C   0  0  0  0  0  0  0  0  0  0  0  0
    0.0000    0.0000    0.0000 C   0  0  0  0  0  0  0  0  0  0  0  0
    0.0000    0.0000    0.0000 C   0  0  0  0  0  0  0  0  0  0  0  0
    0.0000    0.0000    0.0000 N   0  0  0  0  0  0  0  0  0  0  0  0
    0.0000    0.0000    0.0000 C   0  0  0  0  0  0  0  0  0  0  0  0
    0.0000    0.0000    0.0000 C   0  0  0  0  0  0  0  0  0  0  0  0
    0.0000    0.0000    0.0000 C   0  0  0  0  0  0  0  0  0  0  0  0
    0.0000    0.0000    0.0000 N   0  0  0  0  0  0  0  0  0  0  0  0
    0.0000    0.0000    0.0000 N   0  0  0  0  0  0  0  0  0  0  0  0
    0.0000    0.0000    0.0000 C   0  0  0  0  0  0  0  0  0  0  0  0
    0.0000    0.0000    0.0000 C   0  0  0  0  0  0  0  0  0  0  0  0
    0.0000    0.0000    0.0000 C   0  0  0  0  0  0  0  0  0  0  0  0
    0.0000    0.0000    0.0000 C   0  0  0  0  0  0  0  0  0  0  0  0
    0.0000    0.0000    0.0000 C   0  0  0  0  0  0  0  0  0  0  0  0
    0.0000    0.0000    0.0000 F   0  0  0  0  0  0  0  0  0  0  0  0
    0.0000    0.0000    0.0000 F   0  0  0  0  0  0  0  0  0  0  0  0
    0.0000    0.0000    0.0000 F   0  0  0  0  0  0  0  0  0  0  0  0
    0.0000    0.0000    0.0000 C   0  0  0  0  0  0  0  0  0  0  0  0
    0.0000    0.0000    0.0000 C   0  0  0  0  0  0  0  0  0  0  0  0
  1  2  1  0
  2  3  1  0
  3  4  1  0
  4  5  1  0
  5  6  1  0
  6  7  1  0
  7  8  2  0
  8  9  1  0
  9 10  2  0
 10 11  1  0
 11 12  1  0
 12 13  2  0
 12 14  1  0
 14 15  2  0
 15 16  1  0
 16 17  2  0
 17 18  1  0
 17 19  1  0
 19 20  2  0
 19 21  1  0
 21 22  3  0
 22 23  1  0
 23 24  2  0
 24 25  1  0
 25 26  2  0
 26 27  1  0
 27 28  1  0
 28 29  2  0
 29 30  1  0
 30 31  1  0
 27 32  2  0
 10 33  1  0
 33 34  2  0
 34 35  1  0
 35 36  1  0
 35 37  1  0
 35 38  1  0
  5 39  1  0
 39 40  1  0
 40  2  1  0
 34  7  1  0
 20 14  1  0
 32 23  1  0
 30 26  1  0
M  END
>  <pIC50>  (546) 
8.765

>  <ChEMBL_ID>  (546) 
CHEMBL2316580

>  <document_journal>  (546) 
J. Med. Chem.

>  <bao_endpoint>  (546) 
BAO_0000190

>  <potential_duplicate>  (546) 
False

>  <uo_units>  (546) 
UO_0000065

>  <canonical_smiles>  (546) 
CN1CCN(Cc2ccc(NC(=O)c3ccc(C)c(c3)C#Cc4cnc5c(cnn5C)c4)cc2C(F)(F)F)CC1

>  <parent_molecule_chembl_id>  (546) 
CHEMBL2316580

>  <assay_type>  (546) 
B

>  <src_id>  (546) 
1

>  <ligand_efficiency>  (546) 
{u'le': u'0.31', u'bei': u'16.42', u'sei': u'13.54', u'lle': u'3.89'}

>  <standard_flag>  (546) 
True

>  <molecule_chembl_id>  (546) 
CHEMBL2316580

>  <target_organism>  (546) 
Homo sapiens

>  <standard_units>  (546) 
nM

>  <record_id>  (546) 
1847106

>  <document_chembl_id>  (546) 
CHEMBL2311339

>  <bao_format>  (546) 
BAO_0000219

>  <data_validity_description>  (546) 
None

>  <activity_id>  (546) 
12623324

>  <standard_type>  (546) 
IC50

>  <target_chembl_id>  (546) 
CHEMBL1862

>  <data_validity_comment>  (546) 
None

>  <published_value>  (546) 
1.06

>  <document_year>  (546) 
2013

>  <target_pref_name>  (546) 
Tyrosine-protein kinase ABL

>  <assay_chembl_id>  (546) 
CHEMBL2320765

>  <standard_relation>  (546) 
=

>  <assay_description>  (546) 
Inhibition of human recombinant ABL1 Y253F mutant expressed in insect cells after 30 mins by FRET assay

>  <published_relation>  (546) 
=

>  <standard_value>  (546) 
1.06

>  <qudt_units>  (546) 
http://www.openphacts.org/units/Nanomolar

>  <target_tax_id>  (546) 
9606

>  <bao_label>  (546) 
cell-based format

>  <published_units>  (546) 
nM

>  <pchembl_value>  (546) 
8.98

>  <published_type>  (546) 
IC50

>  <activity_comment>  (546) 
None

$$$$

     RDKit          

 39 43  0  0  0  0  0  0  0  0999 V2000
    0.0000    0.0000    0.0000 C   0  0  0  0  0  0  0  0  0  0  0  0
    0.0000    0.0000    0.0000 N   0  0  0  0  0  0  0  0  0  0  0  0
    0.0000    0.0000    0.0000 C   0  0  0  0  0  0  0  0  0  0  0  0
    0.0000    0.0000    0.0000 C   0  0  0  0  0  0  0  0  0  0  0  0
    0.0000    0.0000    0.0000 N   0  0  0  0  0  0  0  0  0  0  0  0
    0.0000    0.0000    0.0000 C   0  0  0  0  0  0  0  0  0  0  0  0
    0.0000    0.0000    0.0000 C   0  0  0  0  0  0  0  0  0  0  0  0
    0.0000    0.0000    0.0000 C   0  0  0  0  0  0  0  0  0  0  0  0
    0.0000    0.0000    0.0000 C   0  0  0  0  0  0  0  0  0  0  0  0
    0.0000    0.0000    0.0000 C   0  0  0  0  0  0  0  0  0  0  0  0
    0.0000    0.0000    0.0000 N   0  0  0  0  0  0  0  0  0  0  0  0
    0.0000    0.0000    0.0000 C   0  0  0  0  0  0  0  0  0  0  0  0
    0.0000    0.0000    0.0000 O   0  0  0  0  0  0  0  0  0  0  0  0
    0.0000    0.0000    0.0000 C   0  0  0  0  0  0  0  0  0  0  0  0
    0.0000    0.0000    0.0000 C   0  0  0  0  0  0  0  0  0  0  0  0
    0.0000    0.0000    0.0000 C   0  0  0  0  0  0  0  0  0  0  0  0
    0.0000    0.0000    0.0000 C   0  0  0  0  0  0  0  0  0  0  0  0
    0.0000    0.0000    0.0000 C   0  0  0  0  0  0  0  0  0  0  0  0
    0.0000    0.0000    0.0000 C   0  0  0  0  0  0  0  0  0  0  0  0
    0.0000    0.0000    0.0000 C   0  0  0  0  0  0  0  0  0  0  0  0
    0.0000    0.0000    0.0000 C   0  0  0  0  0  0  0  0  0  0  0  0
    0.0000    0.0000    0.0000 C   0  0  0  0  0  0  0  0  0  0  0  0
    0.0000    0.0000    0.0000 C   0  0  0  0  0  0  0  0  0  0  0  0
    0.0000    0.0000    0.0000 C   0  0  0  0  0  0  0  0  0  0  0  0
    0.0000    0.0000    0.0000 C   0  0  0  0  0  0  0  0  0  0  0  0
    0.0000    0.0000    0.0000 C   0  0  0  0  0  0  0  0  0  0  0  0
    0.0000    0.0000    0.0000 N   0  0  0  0  0  0  0  0  0  0  0  0
    0.0000    0.0000    0.0000 N   0  0  0  0  0  0  0  0  0  0  0  0
    0.0000    0.0000    0.0000 C   0  0  0  0  0  0  0  0  0  0  0  0
    0.0000    0.0000    0.0000 C   0  0  0  0  0  0  0  0  0  0  0  0
    0.0000    0.0000    0.0000 C   0  0  0  0  0  0  0  0  0  0  0  0
    0.0000    0.0000    0.0000 C   0  0  0  0  0  0  0  0  0  0  0  0
    0.0000    0.0000    0.0000 C   0  0  0  0  0  0  0  0  0  0  0  0
    0.0000    0.0000    0.0000 C   0  0  0  0  0  0  0  0  0  0  0  0
    0.0000    0.0000    0.0000 F   0  0  0  0  0  0  0  0  0  0  0  0
    0.0000    0.0000    0.0000 F   0  0  0  0  0  0  0  0  0  0  0  0
    0.0000    0.0000    0.0000 F   0  0  0  0  0  0  0  0  0  0  0  0
    0.0000    0.0000    0.0000 C   0  0  0  0  0  0  0  0  0  0  0  0
    0.0000    0.0000    0.0000 C   0  0  0  0  0  0  0  0  0  0  0  0
  1  2  1  0
  2  3  1  0
  3  4  1  0
  4  5  1  0
  5  6  1  0
  6  7  1  0
  7  8  2  0
  8  9  1  0
  9 10  2  0
 10 11  1  0
 11 12  1  0
 12 13  2  0
 12 14  1  0
 14 15  2  0
 15 16  1  0
 16 17  2  0
 17 18  1  0
 17 19  1  0
 19 20  2  0
 19 21  1  0
 21 22  3  0
 22 23  1  0
 23 24  2  0
 24 25  1  0
 25 26  2  0
 26 27  1  0
 27 28  1  0
 28 29  2  0
 29 30  1  0
 30 31  2  0
 10 32  1  0
 32 33  2  0
 33 34  1  0
 34 35  1  0
 34 36  1  0
 34 37  1  0
  5 38  1  0
 38 39  1  0
 39  2  1  0
 33  7  1  0
 20 14  1  0
 31 23  1  0
 30 26  1  0
M  END
>  <pIC50>  (547) 
7.5175

>  <ChEMBL_ID>  (547) 
CHEMBL2316579

>  <document_journal>  (547) 
J. Med. Chem.

>  <bao_endpoint>  (547) 
BAO_0000190

>  <potential_duplicate>  (547) 
False

>  <uo_units>  (547) 
UO_0000065

>  <canonical_smiles>  (547) 
CN1CCN(Cc2ccc(NC(=O)c3ccc(C)c(c3)C#Cc4ccc5[nH]ncc5c4)cc2C(F)(F)F)CC1

>  <parent_molecule_chembl_id>  (547) 
CHEMBL2316579

>  <assay_type>  (547) 
B

>  <src_id>  (547) 
1

>  <ligand_efficiency>  (547) 
{u'le': u'0.25', u'bei': u'13.69', u'sei': u'11.33', u'lle': u'1.45'}

>  <standard_flag>  (547) 
True

>  <molecule_chembl_id>  (547) 
CHEMBL2316579

>  <target_organism>  (547) 
Homo sapiens

>  <standard_units>  (547) 
nM

>  <record_id>  (547) 
1847105

>  <document_chembl_id>  (547) 
CHEMBL2311339

>  <bao_format>  (547) 
BAO_0000219

>  <data_validity_description>  (547) 
None

>  <activity_id>  (547) 
12623325

>  <standard_type>  (547) 
IC50

>  <target_chembl_id>  (547) 
CHEMBL1862

>  <data_validity_comment>  (547) 
None

>  <published_value>  (547) 
52.6

>  <document_year>  (547) 
2013

>  <target_pref_name>  (547) 
Tyrosine-protein kinase ABL

>  <assay_chembl_id>  (547) 
CHEMBL2320765

>  <standard_relation>  (547) 
=

>  <assay_description>  (547) 
Inhibition of human recombinant ABL1 Y253F mutant expressed in insect cells after 30 mins by FRET assay

>  <published_relation>  (547) 
=

>  <standard_value>  (547) 
52.6

>  <qudt_units>  (547) 
http://www.openphacts.org/units/Nanomolar

>  <target_tax_id>  (547) 
9606

>  <bao_label>  (547) 
cell-based format

>  <published_units>  (547) 
nM

>  <pchembl_value>  (547) 
7.28

>  <published_type>  (547) 
IC50

>  <activity_comment>  (547) 
None

$$$$

     RDKit          

 41 45  0  0  0  0  0  0  0  0999 V2000
    0.0000    0.0000    0.0000 C   0  0  0  0  0  0  0  0  0  0  0  0
    0.0000    0.0000    0.0000 O   0  0  0  0  0  0  0  0  0  0  0  0
    0.0000    0.0000    0.0000 C   0  0  0  0  0  0  0  0  0  0  0  0
    0.0000    0.0000    0.0000 N   0  0  0  0  0  0  0  0  0  0  0  0
    0.0000    0.0000    0.0000 N   0  0  0  0  0  0  0  0  0  0  0  0
    0.0000    0.0000    0.0000 C   0  0  0  0  0  0  0  0  0  0  0  0
    0.0000    0.0000    0.0000 N   0  0  0  0  0  0  0  0  0  0  0  0
    0.0000    0.0000    0.0000 C   0  0  0  0  0  0  0  0  0  0  0  0
    0.0000    0.0000    0.0000 C   0  0  0  0  0  0  0  0  0  0  0  0
    0.0000    0.0000    0.0000 C   0  0  0  0  0  0  0  0  0  0  0  0
    0.0000    0.0000    0.0000 C   0  0  0  0  0  0  0  0  0  0  0  0
    0.0000    0.0000    0.0000 C   0  0  0  0  0  0  0  0  0  0  0  0
    0.0000    0.0000    0.0000 C   0  0  0  0  0  0  0  0  0  0  0  0
    0.0000    0.0000    0.0000 C   0  0  0  0  0  0  0  0  0  0  0  0
    0.0000    0.0000    0.0000 C   0  0  0  0  0  0  0  0  0  0  0  0
    0.0000    0.0000    0.0000 C   0  0  0  0  0  0  0  0  0  0  0  0
    0.0000    0.0000    0.0000 C   0  0  0  0  0  0  0  0  0  0  0  0
    0.0000    0.0000    0.0000 C   0  0  0  0  0  0  0  0  0  0  0  0
    0.0000    0.0000    0.0000 C   0  0  0  0  0  0  0  0  0  0  0  0
    0.0000    0.0000    0.0000 C   0  0  0  0  0  0  0  0  0  0  0  0
    0.0000    0.0000    0.0000 C   0  0  0  0  0  0  0  0  0  0  0  0
    0.0000    0.0000    0.0000 O   0  0  0  0  0  0  0  0  0  0  0  0
    0.0000    0.0000    0.0000 N   0  0  0  0  0  0  0  0  0  0  0  0
    0.0000    0.0000    0.0000 C   0  0  0  0  0  0  0  0  0  0  0  0
    0.0000    0.0000    0.0000 C   0  0  0  0  0  0  0  0  0  0  0  0
    0.0000    0.0000    0.0000 C   0  0  0  0  0  0  0  0  0  0  0  0
    0.0000    0.0000    0.0000 C   0  0  0  0  0  0  0  0  0  0  0  0
    0.0000    0.0000    0.0000 C   0  0  0  0  0  0  0  0  0  0  0  0
    0.0000    0.0000    0.0000 N   0  0  0  0  0  0  0  0  0  0  0  0
    0.0000    0.0000    0.0000 C   0  0  0  0  0  0  0  0  0  0  0  0
    0.0000    0.0000    0.0000 C   0  0  0  0  0  0  0  0  0  0  0  0
    0.0000    0.0000    0.0000 N   0  0  0  0  0  0  0  0  0  0  0  0
    0.0000    0.0000    0.0000 C   0  0  0  0  0  0  0  0  0  0  0  0
    0.0000    0.0000    0.0000 C   0  0  0  0  0  0  0  0  0  0  0  0
    0.0000    0.0000    0.0000 C   0  0  0  0  0  0  0  0  0  0  0  0
    0.0000    0.0000    0.0000 C   0  0  0  0  0  0  0  0  0  0  0  0
    0.0000    0.0000    0.0000 C   0  0  0  0  0  0  0  0  0  0  0  0
    0.0000    0.0000    0.0000 C   0  0  0  0  0  0  0  0  0  0  0  0
    0.0000    0.0000    0.0000 F   0  0  0  0  0  0  0  0  0  0  0  0
    0.0000    0.0000    0.0000 F   0  0  0  0  0  0  0  0  0  0  0  0
    0.0000    0.0000    0.0000 F   0  0  0  0  0  0  0  0  0  0  0  0
  1  2  1  0
  2  3  1  0
  3  4  2  0
  4  5  1  0
  5  6  1  0
  6  7  2  0
  7  8  1  0
  8  9  2  0
  9 10  1  0
 10 11  2  0
  9 12  1  0
 12 13  3  0
 13 14  1  0
 14 15  2  0
 15 16  1  0
 16 17  2  0
 17 18  1  0
 18 19  2  0
 19 20  1  0
 16 21  1  0
 21 22  2  0
 21 23  1  0
 23 24  1  0
 24 25  2  0
 25 26  1  0
 26 27  2  0
 27 28  1  0
 28 29  1  0
 29 30  1  0
 30 31  1  0
 31 32  1  0
 32 33  1  0
 32 34  1  0
 34 35  1  0
 27 36  1  0
 36 37  2  0
 36 38  1  0
 38 39  1  0
 38 40  1  0
 38 41  1  0
 11  3  1  0
 11  6  1  0
 19 14  1  0
 37 24  1  0
 35 29  1  0
M  END
>  <pIC50>  (548) 
8.08125

>  <ChEMBL_ID>  (548) 
CHEMBL2316872

>  <document_journal>  (548) 
J. Med. Chem.

>  <bao_endpoint>  (548) 
BAO_0000190

>  <potential_duplicate>  (548) 
False

>  <uo_units>  (548) 
UO_0000065

>  <canonical_smiles>  (548) 
COc1n[nH]c2ncc(cc12)C#Cc3cc(ccc3C)C(=O)Nc4ccc(CN5CCN(C)CC5)c(c4)C(F)(F)F

>  <parent_molecule_chembl_id>  (548) 
CHEMBL2316872

>  <assay_type>  (548) 
B

>  <src_id>  (548) 
1

>  <ligand_efficiency>  (548) 
{u'le': u'0.28', u'bei': u'14.73', u'sei': u'9.6', u'lle': u'2.89'}

>  <standard_flag>  (548) 
True

>  <molecule_chembl_id>  (548) 
CHEMBL2316872

>  <target_organism>  (548) 
Homo sapiens

>  <standard_units>  (548) 
nM

>  <record_id>  (548) 
1847471

>  <document_chembl_id>  (548) 
CHEMBL2311339

>  <bao_format>  (548) 
BAO_0000219

>  <data_validity_description>  (548) 
None

>  <activity_id>  (548) 
12623326

>  <standard_type>  (548) 
IC50

>  <target_chembl_id>  (548) 
CHEMBL1862

>  <data_validity_comment>  (548) 
None

>  <published_value>  (548) 
5.15

>  <document_year>  (548) 
2013

>  <target_pref_name>  (548) 
Tyrosine-protein kinase ABL

>  <assay_chembl_id>  (548) 
CHEMBL2320765

>  <standard_relation>  (548) 
=

>  <assay_description>  (548) 
Inhibition of human recombinant ABL1 Y253F mutant expressed in insect cells after 30 mins by FRET assay

>  <published_relation>  (548) 
=

>  <standard_value>  (548) 
5.15

>  <qudt_units>  (548) 
http://www.openphacts.org/units/Nanomolar

>  <target_tax_id>  (548) 
9606

>  <bao_label>  (548) 
cell-based format

>  <published_units>  (548) 
nM

>  <pchembl_value>  (548) 
8.29

>  <published_type>  (548) 
IC50

>  <activity_comment>  (548) 
None

$$$$

     RDKit          

 45 50  0  0  0  0  0  0  0  0999 V2000
    0.0000    0.0000    0.0000 C   0  0  0  0  0  0  0  0  0  0  0  0
    0.0000    0.0000    0.0000 N   0  0  0  0  0  0  0  0  0  0  0  0
    0.0000    0.0000    0.0000 C   0  0  0  0  0  0  0  0  0  0  0  0
    0.0000    0.0000    0.0000 C   0  0  0  0  0  0  0  0  0  0  0  0
    0.0000    0.0000    0.0000 N   0  0  0  0  0  0  0  0  0  0  0  0
    0.0000    0.0000    0.0000 C   0  0  0  0  0  0  0  0  0  0  0  0
    0.0000    0.0000    0.0000 C   0  0  0  0  0  0  0  0  0  0  0  0
    0.0000    0.0000    0.0000 C   0  0  0  0  0  0  0  0  0  0  0  0
    0.0000    0.0000    0.0000 C   0  0  0  0  0  0  0  0  0  0  0  0
    0.0000    0.0000    0.0000 C   0  0  0  0  0  0  0  0  0  0  0  0
    0.0000    0.0000    0.0000 N   0  0  0  0  0  0  0  0  0  0  0  0
    0.0000    0.0000    0.0000 C   0  0  0  0  0  0  0  0  0  0  0  0
    0.0000    0.0000    0.0000 O   0  0  0  0  0  0  0  0  0  0  0  0
    0.0000    0.0000    0.0000 C   0  0  0  0  0  0  0  0  0  0  0  0
    0.0000    0.0000    0.0000 C   0  0  0  0  0  0  0  0  0  0  0  0
    0.0000    0.0000    0.0000 C   0  0  0  0  0  0  0  0  0  0  0  0
    0.0000    0.0000    0.0000 C   0  0  0  0  0  0  0  0  0  0  0  0
    0.0000    0.0000    0.0000 C   0  0  0  0  0  0  0  0  0  0  0  0
    0.0000    0.0000    0.0000 C   0  0  0  0  0  0  0  0  0  0  0  0
    0.0000    0.0000    0.0000 C   0  0  0  0  0  0  0  0  0  0  0  0
    0.0000    0.0000    0.0000 C   0  0  0  0  0  0  0  0  0  0  0  0
    0.0000    0.0000    0.0000 C   0  0  0  0  0  0  0  0  0  0  0  0
    0.0000    0.0000    0.0000 C   0  0  0  0  0  0  0  0  0  0  0  0
    0.0000    0.0000    0.0000 C   0  0  0  0  0  0  0  0  0  0  0  0
    0.0000    0.0000    0.0000 N   0  0  0  0  0  0  0  0  0  0  0  0
    0.0000    0.0000    0.0000 C   0  0  0  0  0  0  0  0  0  0  0  0
    0.0000    0.0000    0.0000 N   0  0  0  0  0  0  0  0  0  0  0  0
    0.0000    0.0000    0.0000 N   0  0  0  0  0  0  0  0  0  0  0  0
    0.0000    0.0000    0.0000 C   0  0  0  0  0  0  0  0  0  0  0  0
    0.0000    0.0000    0.0000 C   0  0  0  0  0  0  0  0  0  0  0  0
    0.0000    0.0000    0.0000 C   0  0  0  0  0  0  0  0  0  0  0  0
    0.0000    0.0000    0.0000 C   0  0  0  0  0  0  0  0  0  0  0  0
    0.0000    0.0000    0.0000 C   0  0  0  0  0  0  0  0  0  0  0  0
    0.0000    0.0000    0.0000 C   0  0  0  0  0  0  0  0  0  0  0  0
    0.0000    0.0000    0.0000 C   0  0  0  0  0  0  0  0  0  0  0  0
    0.0000    0.0000    0.0000 C   0  0  0  0  0  0  0  0  0  0  0  0
    0.0000    0.0000    0.0000 C   0  0  0  0  0  0  0  0  0  0  0  0
    0.0000    0.0000    0.0000 C   0  0  0  0  0  0  0  0  0  0  0  0
    0.0000    0.0000    0.0000 C   0  0  0  0  0  0  0  0  0  0  0  0
    0.0000    0.0000    0.0000 C   0  0  0  0  0  0  0  0  0  0  0  0
    0.0000    0.0000    0.0000 F   0  0  0  0  0  0  0  0  0  0  0  0
    0.0000    0.0000    0.0000 F   0  0  0  0  0  0  0  0  0  0  0  0
    0.0000    0.0000    0.0000 F   0  0  0  0  0  0  0  0  0  0  0  0
    0.0000    0.0000    0.0000 C   0  0  0  0  0  0  0  0  0  0  0  0
    0.0000    0.0000    0.0000 C   0  0  0  0  0  0  0  0  0  0  0  0
  1  2  1  0
  2  3  1  0
  3  4  1  0
  4  5  1  0
  5  6  1  0
  6  7  1  0
  7  8  2  0
  8  9  1  0
  9 10  2  0
 10 11  1  0
 11 12  1  0
 12 13  2  0
 12 14  1  0
 14 15  2  0
 15 16  1  0
 16 17  2  0
 17 18  1  0
 17 19  1  0
 19 20  2  0
 19 21  1  0
 21 22  3  0
 22 23  1  0
 23 24  2  0
 24 25  1  0
 25 26  2  0
 26 27  1  0
 27 28  1  0
 28 29  2  0
 29 30  1  0
 30 31  2  0
 31 32  1  0
 32 33  2  0
 33 34  1  0
 34 35  2  0
 29 36  1  0
 36 37  2  0
 10 38  1  0
 38 39  2  0
 39 40  1  0
 40 41  1  0
 40 42  1  0
 40 43  1  0
  5 44  1  0
 44 45  1  0
 45  2  1  0
 39  7  1  0
 20 14  1  0
 37 23  1  0
 36 26  1  0
 35 30  1  0
M  END
>  <pIC50>  (549) 
8.3725

>  <ChEMBL_ID>  (549) 
CHEMBL2316871

>  <document_journal>  (549) 
J. Med. Chem.

>  <bao_endpoint>  (549) 
BAO_0000190

>  <potential_duplicate>  (549) 
False

>  <uo_units>  (549) 
UO_0000065

>  <canonical_smiles>  (549) 
CN1CCN(Cc2ccc(NC(=O)c3ccc(C)c(c3)C#Cc4cnc5[nH]nc(c6ccccc6)c5c4)cc2C(F)(F)F)CC1

>  <parent_molecule_chembl_id>  (549) 
CHEMBL2316871

>  <assay_type>  (549) 
B

>  <src_id>  (549) 
1

>  <ligand_efficiency>  (549) 
{u'le': u'0.26', u'bei': u'14.11', u'sei': u'11.14', u'lle': u'1.77'}

>  <standard_flag>  (549) 
True

>  <molecule_chembl_id>  (549) 
CHEMBL2316871

>  <target_organism>  (549) 
Homo sapiens

>  <standard_units>  (549) 
nM

>  <record_id>  (549) 
1847470

>  <document_chembl_id>  (549) 
CHEMBL2311339

>  <bao_format>  (549) 
BAO_0000219

>  <data_validity_description>  (549) 
None

>  <activity_id>  (549) 
12623327

>  <standard_type>  (549) 
IC50

>  <target_chembl_id>  (549) 
CHEMBL1862

>  <data_validity_comment>  (549) 
None

>  <published_value>  (549) 
2.57

>  <document_year>  (549) 
2013

>  <target_pref_name>  (549) 
Tyrosine-protein kinase ABL

>  <assay_chembl_id>  (549) 
CHEMBL2320765

>  <standard_relation>  (549) 
=

>  <assay_description>  (549) 
Inhibition of human recombinant ABL1 Y253F mutant expressed in insect cells after 30 mins by FRET assay

>  <published_relation>  (549) 
=

>  <standard_value>  (549) 
2.57

>  <qudt_units>  (549) 
http://www.openphacts.org/units/Nanomolar

>  <target_tax_id>  (549) 
9606

>  <bao_label>  (549) 
cell-based format

>  <published_units>  (549) 
nM

>  <pchembl_value>  (549) 
8.59

>  <published_type>  (549) 
IC50

>  <activity_comment>  (549) 
None

$$$$

     RDKit          

 42 47  0  0  0  0  0  0  0  0999 V2000
    0.0000    0.0000    0.0000 C   0  0  0  0  0  0  0  0  0  0  0  0
    0.0000    0.0000    0.0000 N   0  0  0  0  0  0  0  0  0  0  0  0
    0.0000    0.0000    0.0000 C   0  0  0  0  0  0  0  0  0  0  0  0
    0.0000    0.0000    0.0000 C   0  0  0  0  0  0  0  0  0  0  0  0
    0.0000    0.0000    0.0000 N   0  0  0  0  0  0  0  0  0  0  0  0
    0.0000    0.0000    0.0000 C   0  0  0  0  0  0  0  0  0  0  0  0
    0.0000    0.0000    0.0000 C   0  0  0  0  0  0  0  0  0  0  0  0
    0.0000    0.0000    0.0000 C   0  0  0  0  0  0  0  0  0  0  0  0
    0.0000    0.0000    0.0000 C   0  0  0  0  0  0  0  0  0  0  0  0
    0.0000    0.0000    0.0000 C   0  0  0  0  0  0  0  0  0  0  0  0
    0.0000    0.0000    0.0000 N   0  0  0  0  0  0  0  0  0  0  0  0
    0.0000    0.0000    0.0000 C   0  0  0  0  0  0  0  0  0  0  0  0
    0.0000    0.0000    0.0000 O   0  0  0  0  0  0  0  0  0  0  0  0
    0.0000    0.0000    0.0000 C   0  0  0  0  0  0  0  0  0  0  0  0
    0.0000    0.0000    0.0000 C   0  0  0  0  0  0  0  0  0  0  0  0
    0.0000    0.0000    0.0000 C   0  0  0  0  0  0  0  0  0  0  0  0
    0.0000    0.0000    0.0000 C   0  0  0  0  0  0  0  0  0  0  0  0
    0.0000    0.0000    0.0000 C   0  0  0  0  0  0  0  0  0  0  0  0
    0.0000    0.0000    0.0000 C   0  0  0  0  0  0  0  0  0  0  0  0
    0.0000    0.0000    0.0000 C   0  0  0  0  0  0  0  0  0  0  0  0
    0.0000    0.0000    0.0000 C   0  0  0  0  0  0  0  0  0  0  0  0
    0.0000    0.0000    0.0000 C   0  0  0  0  0  0  0  0  0  0  0  0
    0.0000    0.0000    0.0000 C   0  0  0  0  0  0  0  0  0  0  0  0
    0.0000    0.0000    0.0000 C   0  0  0  0  0  0  0  0  0  0  0  0
    0.0000    0.0000    0.0000 N   0  0  0  0  0  0  0  0  0  0  0  0
    0.0000    0.0000    0.0000 C   0  0  0  0  0  0  0  0  0  0  0  0
    0.0000    0.0000    0.0000 N   0  0  0  0  0  0  0  0  0  0  0  0
    0.0000    0.0000    0.0000 N   0  0  0  0  0  0  0  0  0  0  0  0
    0.0000    0.0000    0.0000 C   0  0  0  0  0  0  0  0  0  0  0  0
    0.0000    0.0000    0.0000 C   0  0  0  0  0  0  0  0  0  0  0  0
    0.0000    0.0000    0.0000 C   0  0  0  0  0  0  0  0  0  0  0  0
    0.0000    0.0000    0.0000 C   0  0  0  0  0  0  0  0  0  0  0  0
    0.0000    0.0000    0.0000 C   0  0  0  0  0  0  0  0  0  0  0  0
    0.0000    0.0000    0.0000 C   0  0  0  0  0  0  0  0  0  0  0  0
    0.0000    0.0000    0.0000 C   0  0  0  0  0  0  0  0  0  0  0  0
    0.0000    0.0000    0.0000 C   0  0  0  0  0  0  0  0  0  0  0  0
    0.0000    0.0000    0.0000 C   0  0  0  0  0  0  0  0  0  0  0  0
    0.0000    0.0000    0.0000 F   0  0  0  0  0  0  0  0  0  0  0  0
    0.0000    0.0000    0.0000 F   0  0  0  0  0  0  0  0  0  0  0  0
    0.0000    0.0000    0.0000 F   0  0  0  0  0  0  0  0  0  0  0  0
    0.0000    0.0000    0.0000 C   0  0  0  0  0  0  0  0  0  0  0  0
    0.0000    0.0000    0.0000 C   0  0  0  0  0  0  0  0  0  0  0  0
  1  2  1  0
  2  3  1  0
  3  4  1  0
  4  5  1  0
  5  6  1  0
  6  7  1  0
  7  8  2  0
  8  9  1  0
  9 10  2  0
 10 11  1  0
 11 12  1  0
 12 13  2  0
 12 14  1  0
 14 15  2  0
 15 16  1  0
 16 17  2  0
 17 18  1  0
 17 19  1  0
 19 20  2  0
 19 21  1  0
 21 22  3  0
 22 23  1  0
 23 24  2  0
 24 25  1  0
 25 26  2  0
 26 27  1  0
 27 28  1  0
 28 29  2  0
 29 30  1  0
 30 31  1  0
 31 32  1  0
 29 33  1  0
 33 34  2  0
 10 35  1  0
 35 36  2  0
 36 37  1  0
 37 38  1  0
 37 39  1  0
 37 40  1  0
  5 41  1  0
 41 42  1  0
 42  2  1  0
 36  7  1  0
 20 14  1  0
 34 23  1  0
 33 26  1  0
 32 30  1  0
M  END
>  <pIC50>  (550) 
8.88375

>  <ChEMBL_ID>  (550) 
CHEMBL2316870

>  <document_journal>  (550) 
J. Med. Chem.

>  <bao_endpoint>  (550) 
BAO_0000190

>  <potential_duplicate>  (550) 
False

>  <uo_units>  (550) 
UO_0000065

>  <canonical_smiles>  (550) 
CN1CCN(Cc2ccc(NC(=O)c3ccc(C)c(c3)C#Cc4cnc5[nH]nc(C6CC6)c5c4)cc2C(F)(F)F)CC1

>  <parent_molecule_chembl_id>  (550) 
CHEMBL2316870

>  <assay_type>  (550) 
B

>  <src_id>  (550) 
1

>  <ligand_efficiency>  (550) 
{u'le': u'0.29', u'bei': u'15.61', u'sei': u'11.59', u'lle': u'3.02'}

>  <standard_flag>  (550) 
True

>  <molecule_chembl_id>  (550) 
CHEMBL2316870

>  <target_organism>  (550) 
Homo sapiens

>  <standard_units>  (550) 
nM

>  <record_id>  (550) 
1847469

>  <document_chembl_id>  (550) 
CHEMBL2311339

>  <bao_format>  (550) 
BAO_0000219

>  <data_validity_description>  (550) 
None

>  <activity_id>  (550) 
12623328

>  <standard_type>  (550) 
IC50

>  <target_chembl_id>  (550) 
CHEMBL1862

>  <data_validity_comment>  (550) 
None

>  <published_value>  (550) 
1.15

>  <document_year>  (550) 
2013

>  <target_pref_name>  (550) 
Tyrosine-protein kinase ABL

>  <assay_chembl_id>  (550) 
CHEMBL2320765

>  <standard_relation>  (550) 
=

>  <assay_description>  (550) 
Inhibition of human recombinant ABL1 Y253F mutant expressed in insect cells after 30 mins by FRET assay

>  <published_relation>  (550) 
=

>  <standard_value>  (550) 
1.15

>  <qudt_units>  (550) 
http://www.openphacts.org/units/Nanomolar

>  <target_tax_id>  (550) 
9606

>  <bao_label>  (550) 
cell-based format

>  <published_units>  (550) 
nM

>  <pchembl_value>  (550) 
8.94

>  <published_type>  (550) 
IC50

>  <activity_comment>  (550) 
None

$$$$

     RDKit          

 40 44  0  0  0  0  0  0  0  0999 V2000
    0.0000    0.0000    0.0000 C   0  0  0  0  0  0  0  0  0  0  0  0
    0.0000    0.0000    0.0000 N   0  0  0  0  0  0  0  0  0  0  0  0
    0.0000    0.0000    0.0000 C   0  0  0  0  0  0  0  0  0  0  0  0
    0.0000    0.0000    0.0000 C   0  0  0  0  0  0  0  0  0  0  0  0
    0.0000    0.0000    0.0000 N   0  0  0  0  0  0  0  0  0  0  0  0
    0.0000    0.0000    0.0000 C   0  0  0  0  0  0  0  0  0  0  0  0
    0.0000    0.0000    0.0000 C   0  0  0  0  0  0  0  0  0  0  0  0
    0.0000    0.0000    0.0000 C   0  0  0  0  0  0  0  0  0  0  0  0
    0.0000    0.0000    0.0000 C   0  0  0  0  0  0  0  0  0  0  0  0
    0.0000    0.0000    0.0000 C   0  0  0  0  0  0  0  0  0  0  0  0
    0.0000    0.0000    0.0000 N   0  0  0  0  0  0  0  0  0  0  0  0
    0.0000    0.0000    0.0000 C   0  0  0  0  0  0  0  0  0  0  0  0
    0.0000    0.0000    0.0000 O   0  0  0  0  0  0  0  0  0  0  0  0
    0.0000    0.0000    0.0000 C   0  0  0  0  0  0  0  0  0  0  0  0
    0.0000    0.0000    0.0000 C   0  0  0  0  0  0  0  0  0  0  0  0
    0.0000    0.0000    0.0000 C   0  0  0  0  0  0  0  0  0  0  0  0
    0.0000    0.0000    0.0000 C   0  0  0  0  0  0  0  0  0  0  0  0
    0.0000    0.0000    0.0000 C   0  0  0  0  0  0  0  0  0  0  0  0
    0.0000    0.0000    0.0000 C   0  0  0  0  0  0  0  0  0  0  0  0
    0.0000    0.0000    0.0000 C   0  0  0  0  0  0  0  0  0  0  0  0
    0.0000    0.0000    0.0000 C   0  0  0  0  0  0  0  0  0  0  0  0
    0.0000    0.0000    0.0000 C   0  0  0  0  0  0  0  0  0  0  0  0
    0.0000    0.0000    0.0000 C   0  0  0  0  0  0  0  0  0  0  0  0
    0.0000    0.0000    0.0000 C   0  0  0  0  0  0  0  0  0  0  0  0
    0.0000    0.0000    0.0000 N   0  0  0  0  0  0  0  0  0  0  0  0
    0.0000    0.0000    0.0000 C   0  0  0  0  0  0  0  0  0  0  0  0
    0.0000    0.0000    0.0000 N   0  0  0  0  0  0  0  0  0  0  0  0
    0.0000    0.0000    0.0000 N   0  0  0  0  0  0  0  0  0  0  0  0
    0.0000    0.0000    0.0000 C   0  0  0  0  0  0  0  0  0  0  0  0
    0.0000    0.0000    0.0000 C   0  0  0  0  0  0  0  0  0  0  0  0
    0.0000    0.0000    0.0000 C   0  0  0  0  0  0  0  0  0  0  0  0
    0.0000    0.0000    0.0000 C   0  0  0  0  0  0  0  0  0  0  0  0
    0.0000    0.0000    0.0000 C   0  0  0  0  0  0  0  0  0  0  0  0
    0.0000    0.0000    0.0000 C   0  0  0  0  0  0  0  0  0  0  0  0
    0.0000    0.0000    0.0000 C   0  0  0  0  0  0  0  0  0  0  0  0
    0.0000    0.0000    0.0000 F   0  0  0  0  0  0  0  0  0  0  0  0
    0.0000    0.0000    0.0000 F   0  0  0  0  0  0  0  0  0  0  0  0
    0.0000    0.0000    0.0000 F   0  0  0  0  0  0  0  0  0  0  0  0
    0.0000    0.0000    0.0000 C   0  0  0  0  0  0  0  0  0  0  0  0
    0.0000    0.0000    0.0000 C   0  0  0  0  0  0  0  0  0  0  0  0
  1  2  1  0
  2  3  1  0
  3  4  1  0
  4  5  1  0
  5  6  1  0
  6  7  1  0
  7  8  2  0
  8  9  1  0
  9 10  2  0
 10 11  1  0
 11 12  1  0
 12 13  2  0
 12 14  1  0
 14 15  2  0
 15 16  1  0
 16 17  2  0
 17 18  1  0
 17 19  1  0
 19 20  2  0
 19 21  1  0
 21 22  3  0
 22 23  1  0
 23 24  2  0
 24 25  1  0
 25 26  2  0
 26 27  1  0
 27 28  1  0
 28 29  2  0
 29 30  1  0
 29 31  1  0
 31 32  2  0
 10 33  1  0
 33 34  2  0
 34 35  1  0
 35 36  1  0
 35 37  1  0
 35 38  1  0
  5 39  1  0
 39 40  1  0
 40  2  1  0
 34  7  1  0
 20 14  1  0
 32 23  1  0
 31 26  1  0
M  END
>  <pIC50>  (551) 
9.1175

>  <ChEMBL_ID>  (551) 
CHEMBL2316869

>  <document_journal>  (551) 
J. Med. Chem.

>  <bao_endpoint>  (551) 
BAO_0000190

>  <potential_duplicate>  (551) 
False

>  <uo_units>  (551) 
UO_0000065

>  <canonical_smiles>  (551) 
CN1CCN(Cc2ccc(NC(=O)c3ccc(C)c(c3)C#Cc4cnc5[nH]nc(C)c5c4)cc2C(F)(F)F)CC1

>  <parent_molecule_chembl_id>  (551) 
CHEMBL2316869

>  <assay_type>  (551) 
B

>  <src_id>  (551) 
1

>  <ligand_efficiency>  (551) 
{u'le': u'0.32', u'bei': u'16.96', u'sei': u'12.01', u'lle': u'4.11'}

>  <standard_flag>  (551) 
True

>  <molecule_chembl_id>  (551) 
CHEMBL2316869

>  <target_organism>  (551) 
Homo sapiens

>  <standard_units>  (551) 
nM

>  <record_id>  (551) 
1847468

>  <document_chembl_id>  (551) 
CHEMBL2311339

>  <bao_format>  (551) 
BAO_0000219

>  <data_validity_description>  (551) 
None

>  <activity_id>  (551) 
12623329

>  <standard_type>  (551) 
IC50

>  <target_chembl_id>  (551) 
CHEMBL1862

>  <data_validity_comment>  (551) 
None

>  <published_value>  (551) 
0.54

>  <document_year>  (551) 
2013

>  <target_pref_name>  (551) 
Tyrosine-protein kinase ABL

>  <assay_chembl_id>  (551) 
CHEMBL2320765

>  <standard_relation>  (551) 
=

>  <assay_description>  (551) 
Inhibition of human recombinant ABL1 Y253F mutant expressed in insect cells after 30 mins by FRET assay

>  <published_relation>  (551) 
=

>  <standard_value>  (551) 
0.54

>  <qudt_units>  (551) 
http://www.openphacts.org/units/Nanomolar

>  <target_tax_id>  (551) 
9606

>  <bao_label>  (551) 
cell-based format

>  <published_units>  (551) 
nM

>  <pchembl_value>  (551) 
9.27

>  <published_type>  (551) 
IC50

>  <activity_comment>  (551) 
None

$$$$

     RDKit          

 39 43  0  0  0  0  0  0  0  0999 V2000
    0.0000    0.0000    0.0000 C   0  0  0  0  0  0  0  0  0  0  0  0
    0.0000    0.0000    0.0000 N   0  0  0  0  0  0  0  0  0  0  0  0
    0.0000    0.0000    0.0000 C   0  0  0  0  0  0  0  0  0  0  0  0
    0.0000    0.0000    0.0000 C   0  0  0  0  0  0  0  0  0  0  0  0
    0.0000    0.0000    0.0000 N   0  0  0  0  0  0  0  0  0  0  0  0
    0.0000    0.0000    0.0000 C   0  0  0  0  0  0  0  0  0  0  0  0
    0.0000    0.0000    0.0000 C   0  0  0  0  0  0  0  0  0  0  0  0
    0.0000    0.0000    0.0000 C   0  0  0  0  0  0  0  0  0  0  0  0
    0.0000    0.0000    0.0000 C   0  0  0  0  0  0  0  0  0  0  0  0
    0.0000    0.0000    0.0000 C   0  0  0  0  0  0  0  0  0  0  0  0
    0.0000    0.0000    0.0000 N   0  0  0  0  0  0  0  0  0  0  0  0
    0.0000    0.0000    0.0000 C   0  0  0  0  0  0  0  0  0  0  0  0
    0.0000    0.0000    0.0000 O   0  0  0  0  0  0  0  0  0  0  0  0
    0.0000    0.0000    0.0000 C   0  0  0  0  0  0  0  0  0  0  0  0
    0.0000    0.0000    0.0000 C   0  0  0  0  0  0  0  0  0  0  0  0
    0.0000    0.0000    0.0000 C   0  0  0  0  0  0  0  0  0  0  0  0
    0.0000    0.0000    0.0000 C   0  0  0  0  0  0  0  0  0  0  0  0
    0.0000    0.0000    0.0000 Cl  0  0  0  0  0  0  0  0  0  0  0  0
    0.0000    0.0000    0.0000 C   0  0  0  0  0  0  0  0  0  0  0  0
    0.0000    0.0000    0.0000 C   0  0  0  0  0  0  0  0  0  0  0  0
    0.0000    0.0000    0.0000 C   0  0  0  0  0  0  0  0  0  0  0  0
    0.0000    0.0000    0.0000 C   0  0  0  0  0  0  0  0  0  0  0  0
    0.0000    0.0000    0.0000 C   0  0  0  0  0  0  0  0  0  0  0  0
    0.0000    0.0000    0.0000 C   0  0  0  0  0  0  0  0  0  0  0  0
    0.0000    0.0000    0.0000 N   0  0  0  0  0  0  0  0  0  0  0  0
    0.0000    0.0000    0.0000 C   0  0  0  0  0  0  0  0  0  0  0  0
    0.0000    0.0000    0.0000 N   0  0  0  0  0  0  0  0  0  0  0  0
    0.0000    0.0000    0.0000 N   0  0  0  0  0  0  0  0  0  0  0  0
    0.0000    0.0000    0.0000 C   0  0  0  0  0  0  0  0  0  0  0  0
    0.0000    0.0000    0.0000 C   0  0  0  0  0  0  0  0  0  0  0  0
    0.0000    0.0000    0.0000 C   0  0  0  0  0  0  0  0  0  0  0  0
    0.0000    0.0000    0.0000 C   0  0  0  0  0  0  0  0  0  0  0  0
    0.0000    0.0000    0.0000 C   0  0  0  0  0  0  0  0  0  0  0  0
    0.0000    0.0000    0.0000 C   0  0  0  0  0  0  0  0  0  0  0  0
    0.0000    0.0000    0.0000 F   0  0  0  0  0  0  0  0  0  0  0  0
    0.0000    0.0000    0.0000 F   0  0  0  0  0  0  0  0  0  0  0  0
    0.0000    0.0000    0.0000 F   0  0  0  0  0  0  0  0  0  0  0  0
    0.0000    0.0000    0.0000 C   0  0  0  0  0  0  0  0  0  0  0  0
    0.0000    0.0000    0.0000 C   0  0  0  0  0  0  0  0  0  0  0  0
  1  2  1  0
  2  3  1  0
  3  4  1  0
  4  5  1  0
  5  6  1  0
  6  7  1  0
  7  8  2  0
  8  9  1  0
  9 10  2  0
 10 11  1  0
 11 12  1  0
 12 13  2  0
 12 14  1  0
 14 15  2  0
 15 16  1  0
 16 17  2  0
 17 18  1  0
 17 19  1  0
 19 20  2  0
 19 21  1  0
 21 22  3  0
 22 23  1  0
 23 24  2  0
 24 25  1  0
 25 26  2  0
 26 27  1  0
 27 28  1  0
 28 29  2  0
 29 30  1  0
 30 31  2  0
 10 32  1  0
 32 33  2  0
 33 34  1  0
 34 35  1  0
 34 36  1  0
 34 37  1  0
  5 38  1  0
 38 39  1  0
 39  2  1  0
 33  7  1  0
 20 14  1  0
 31 23  1  0
 30 26  1  0
M  END
>  <pIC50>  (552) 
8.99375

>  <ChEMBL_ID>  (552) 
CHEMBL2316586

>  <document_journal>  (552) 
J. Med. Chem.

>  <bao_endpoint>  (552) 
BAO_0000190

>  <potential_duplicate>  (552) 
False

>  <uo_units>  (552) 
UO_0000065

>  <canonical_smiles>  (552) 
CN1CCN(Cc2ccc(NC(=O)c3ccc(Cl)c(c3)C#Cc4cnc5[nH]ncc5c4)cc2C(F)(F)F)CC1

>  <parent_molecule_chembl_id>  (552) 
CHEMBL2316586

>  <assay_type>  (552) 
B

>  <src_id>  (552) 
1

>  <ligand_efficiency>  (552) 
{u'le': u'0.32', u'bei': u'16.48', u'sei': u'11.81', u'lle': u'4.06'}

>  <standard_flag>  (552) 
True

>  <molecule_chembl_id>  (552) 
CHEMBL2316586

>  <target_organism>  (552) 
Homo sapiens

>  <standard_units>  (552) 
nM

>  <record_id>  (552) 
1847117

>  <document_chembl_id>  (552) 
CHEMBL2311339

>  <bao_format>  (552) 
BAO_0000219

>  <data_validity_description>  (552) 
None

>  <activity_id>  (552) 
12623330

>  <standard_type>  (552) 
IC50

>  <target_chembl_id>  (552) 
CHEMBL1862

>  <data_validity_comment>  (552) 
None

>  <published_value>  (552) 
0.77

>  <document_year>  (552) 
2013

>  <target_pref_name>  (552) 
Tyrosine-protein kinase ABL

>  <assay_chembl_id>  (552) 
CHEMBL2320765

>  <standard_relation>  (552) 
=

>  <assay_description>  (552) 
Inhibition of human recombinant ABL1 Y253F mutant expressed in insect cells after 30 mins by FRET assay

>  <published_relation>  (552) 
=

>  <standard_value>  (552) 
0.77

>  <qudt_units>  (552) 
http://www.openphacts.org/units/Nanomolar

>  <target_tax_id>  (552) 
9606

>  <bao_label>  (552) 
cell-based format

>  <published_units>  (552) 
nM

>  <pchembl_value>  (552) 
9.11

>  <published_type>  (552) 
IC50

>  <activity_comment>  (552) 
None

$$$$

     RDKit          

 41 46  0  0  0  0  0  0  0  0999 V2000
    0.0000    0.0000    0.0000 C   0  0  0  0  0  0  0  0  0  0  0  0
    0.0000    0.0000    0.0000 N   0  0  0  0  0  0  0  0  0  0  0  0
    0.0000    0.0000    0.0000 C   0  0  0  0  0  0  0  0  0  0  0  0
    0.0000    0.0000    0.0000 C   0  0  0  0  0  0  0  0  0  0  0  0
    0.0000    0.0000    0.0000 N   0  0  0  0  0  0  0  0  0  0  0  0
    0.0000    0.0000    0.0000 C   0  0  0  0  0  0  0  0  0  0  0  0
    0.0000    0.0000    0.0000 C   0  0  0  0  0  0  0  0  0  0  0  0
    0.0000    0.0000    0.0000 C   0  0  0  0  0  0  0  0  0  0  0  0
    0.0000    0.0000    0.0000 C   0  0  0  0  0  0  0  0  0  0  0  0
    0.0000    0.0000    0.0000 C   0  0  0  0  0  0  0  0  0  0  0  0
    0.0000    0.0000    0.0000 N   0  0  0  0  0  0  0  0  0  0  0  0
    0.0000    0.0000    0.0000 C   0  0  0  0  0  0  0  0  0  0  0  0
    0.0000    0.0000    0.0000 O   0  0  0  0  0  0  0  0  0  0  0  0
    0.0000    0.0000    0.0000 C   0  0  0  0  0  0  0  0  0  0  0  0
    0.0000    0.0000    0.0000 C   0  0  0  0  0  0  0  0  0  0  0  0
    0.0000    0.0000    0.0000 C   0  0  0  0  0  0  0  0  0  0  0  0
    0.0000    0.0000    0.0000 C   0  0  0  0  0  0  0  0  0  0  0  0
    0.0000    0.0000    0.0000 C   0  0  0  0  0  0  0  0  0  0  0  0
    0.0000    0.0000    0.0000 C   0  0  0  0  0  0  0  0  0  0  0  0
    0.0000    0.0000    0.0000 C   0  0  0  0  0  0  0  0  0  0  0  0
    0.0000    0.0000    0.0000 C   0  0  0  0  0  0  0  0  0  0  0  0
    0.0000    0.0000    0.0000 C   0  0  0  0  0  0  0  0  0  0  0  0
    0.0000    0.0000    0.0000 C   0  0  0  0  0  0  0  0  0  0  0  0
    0.0000    0.0000    0.0000 C   0  0  0  0  0  0  0  0  0  0  0  0
    0.0000    0.0000    0.0000 C   0  0  0  0  0  0  0  0  0  0  0  0
    0.0000    0.0000    0.0000 C   0  0  0  0  0  0  0  0  0  0  0  0
    0.0000    0.0000    0.0000 N   0  0  0  0  0  0  0  0  0  0  0  0
    0.0000    0.0000    0.0000 C   0  0  0  0  0  0  0  0  0  0  0  0
    0.0000    0.0000    0.0000 N   0  0  0  0  0  0  0  0  0  0  0  0
    0.0000    0.0000    0.0000 N   0  0  0  0  0  0  0  0  0  0  0  0
    0.0000    0.0000    0.0000 C   0  0  0  0  0  0  0  0  0  0  0  0
    0.0000    0.0000    0.0000 C   0  0  0  0  0  0  0  0  0  0  0  0
    0.0000    0.0000    0.0000 C   0  0  0  0  0  0  0  0  0  0  0  0
    0.0000    0.0000    0.0000 C   0  0  0  0  0  0  0  0  0  0  0  0
    0.0000    0.0000    0.0000 C   0  0  0  0  0  0  0  0  0  0  0  0
    0.0000    0.0000    0.0000 C   0  0  0  0  0  0  0  0  0  0  0  0
    0.0000    0.0000    0.0000 F   0  0  0  0  0  0  0  0  0  0  0  0
    0.0000    0.0000    0.0000 F   0  0  0  0  0  0  0  0  0  0  0  0
    0.0000    0.0000    0.0000 F   0  0  0  0  0  0  0  0  0  0  0  0
    0.0000    0.0000    0.0000 C   0  0  0  0  0  0  0  0  0  0  0  0
    0.0000    0.0000    0.0000 C   0  0  0  0  0  0  0  0  0  0  0  0
  1  2  1  0
  2  3  1  0
  3  4  1  0
  4  5  1  0
  5  6  1  0
  6  7  1  0
  7  8  2  0
  8  9  1  0
  9 10  2  0
 10 11  1  0
 11 12  1  0
 12 13  2  0
 12 14  1  0
 14 15  2  0
 15 16  1  0
 16 17  2  0
 17 18  1  0
 18 19  1  0
 19 20  1  0
 17 21  1  0
 21 22  2  0
 21 23  1  0
 23 24  3  0
 24 25  1  0
 25 26  2  0
 26 27  1  0
 27 28  2  0
 28 29  1  0
 29 30  1  0
 30 31  2  0
 31 32  1  0
 32 33  2  0
 10 34  1  0
 34 35  2  0
 35 36  1  0
 36 37  1  0
 36 38  1  0
 36 39  1  0
  5 40  1  0
 40 41  1  0
 41  2  1  0
 35  7  1  0
 22 14  1  0
 20 18  1  0
 33 25  1  0
 32 28  1  0
M  END
>  <pIC50>  (553) 
8.1175

>  <ChEMBL_ID>  (553) 
CHEMBL2316585

>  <document_journal>  (553) 
J. Med. Chem.

>  <bao_endpoint>  (553) 
BAO_0000190

>  <potential_duplicate>  (553) 
False

>  <uo_units>  (553) 
UO_0000065

>  <canonical_smiles>  (553) 
CN1CCN(Cc2ccc(NC(=O)c3ccc(C4CC4)c(c3)C#Cc5cnc6[nH]ncc6c5)cc2C(F)(F)F)CC1

>  <parent_molecule_chembl_id>  (553) 
CHEMBL2316585

>  <assay_type>  (553) 
B

>  <src_id>  (553) 
1

>  <ligand_efficiency>  (553) 
{u'le': u'0.28', u'bei': u'14.95', u'sei': u'10.83', u'lle': u'3.14'}

>  <standard_flag>  (553) 
True

>  <molecule_chembl_id>  (553) 
CHEMBL2316585

>  <target_organism>  (553) 
Homo sapiens

>  <standard_units>  (553) 
nM

>  <record_id>  (553) 
1847116

>  <document_chembl_id>  (553) 
CHEMBL2311339

>  <bao_format>  (553) 
BAO_0000219

>  <data_validity_description>  (553) 
None

>  <activity_id>  (553) 
12623331

>  <standard_type>  (553) 
IC50

>  <target_chembl_id>  (553) 
CHEMBL1862

>  <data_validity_comment>  (553) 
None

>  <published_value>  (553) 
4.44

>  <document_year>  (553) 
2013

>  <target_pref_name>  (553) 
Tyrosine-protein kinase ABL

>  <assay_chembl_id>  (553) 
CHEMBL2320765

>  <standard_relation>  (553) 
=

>  <assay_description>  (553) 
Inhibition of human recombinant ABL1 Y253F mutant expressed in insect cells after 30 mins by FRET assay

>  <published_relation>  (553) 
=

>  <standard_value>  (553) 
4.44

>  <qudt_units>  (553) 
http://www.openphacts.org/units/Nanomolar

>  <target_tax_id>  (553) 
9606

>  <bao_label>  (553) 
cell-based format

>  <published_units>  (553) 
nM

>  <pchembl_value>  (553) 
8.35

>  <published_type>  (553) 
IC50

>  <activity_comment>  (553) 
None

$$$$

     RDKit          

 40 44  0  0  0  0  0  0  0  0999 V2000
    0.0000    0.0000    0.0000 C   0  0  0  0  0  0  0  0  0  0  0  0
    0.0000    0.0000    0.0000 C   0  0  0  0  0  0  0  0  0  0  0  0
    0.0000    0.0000    0.0000 C   0  0  0  0  0  0  0  0  0  0  0  0
    0.0000    0.0000    0.0000 C   0  0  0  0  0  0  0  0  0  0  0  0
    0.0000    0.0000    0.0000 C   0  0  0  0  0  0  0  0  0  0  0  0
    0.0000    0.0000    0.0000 C   0  0  0  0  0  0  0  0  0  0  0  0
    0.0000    0.0000    0.0000 C   0  0  0  0  0  0  0  0  0  0  0  0
    0.0000    0.0000    0.0000 C   0  0  0  0  0  0  0  0  0  0  0  0
    0.0000    0.0000    0.0000 C   0  0  0  0  0  0  0  0  0  0  0  0
    0.0000    0.0000    0.0000 C   0  0  0  0  0  0  0  0  0  0  0  0
    0.0000    0.0000    0.0000 C   0  0  0  0  0  0  0  0  0  0  0  0
    0.0000    0.0000    0.0000 C   0  0  0  0  0  0  0  0  0  0  0  0
    0.0000    0.0000    0.0000 N   0  0  0  0  0  0  0  0  0  0  0  0
    0.0000    0.0000    0.0000 C   0  0  0  0  0  0  0  0  0  0  0  0
    0.0000    0.0000    0.0000 N   0  0  0  0  0  0  0  0  0  0  0  0
    0.0000    0.0000    0.0000 N   0  0  0  0  0  0  0  0  0  0  0  0
    0.0000    0.0000    0.0000 C   0  0  0  0  0  0  0  0  0  0  0  0
    0.0000    0.0000    0.0000 C   0  0  0  0  0  0  0  0  0  0  0  0
    0.0000    0.0000    0.0000 C   0  0  0  0  0  0  0  0  0  0  0  0
    0.0000    0.0000    0.0000 C   0  0  0  0  0  0  0  0  0  0  0  0
    0.0000    0.0000    0.0000 O   0  0  0  0  0  0  0  0  0  0  0  0
    0.0000    0.0000    0.0000 N   0  0  0  0  0  0  0  0  0  0  0  0
    0.0000    0.0000    0.0000 C   0  0  0  0  0  0  0  0  0  0  0  0
    0.0000    0.0000    0.0000 C   0  0  0  0  0  0  0  0  0  0  0  0
    0.0000    0.0000    0.0000 C   0  0  0  0  0  0  0  0  0  0  0  0
    0.0000    0.0000    0.0000 C   0  0  0  0  0  0  0  0  0  0  0  0
    0.0000    0.0000    0.0000 C   0  0  0  0  0  0  0  0  0  0  0  0
    0.0000    0.0000    0.0000 N   0  0  0  0  0  0  0  0  0  0  0  0
    0.0000    0.0000    0.0000 C   0  0  0  0  0  0  0  0  0  0  0  0
    0.0000    0.0000    0.0000 C   0  0  0  0  0  0  0  0  0  0  0  0
    0.0000    0.0000    0.0000 N   0  0  0  0  0  0  0  0  0  0  0  0
    0.0000    0.0000    0.0000 C   0  0  0  0  0  0  0  0  0  0  0  0
    0.0000    0.0000    0.0000 C   0  0  0  0  0  0  0  0  0  0  0  0
    0.0000    0.0000    0.0000 C   0  0  0  0  0  0  0  0  0  0  0  0
    0.0000    0.0000    0.0000 C   0  0  0  0  0  0  0  0  0  0  0  0
    0.0000    0.0000    0.0000 C   0  0  0  0  0  0  0  0  0  0  0  0
    0.0000    0.0000    0.0000 C   0  0  0  0  0  0  0  0  0  0  0  0
    0.0000    0.0000    0.0000 F   0  0  0  0  0  0  0  0  0  0  0  0
    0.0000    0.0000    0.0000 F   0  0  0  0  0  0  0  0  0  0  0  0
    0.0000    0.0000    0.0000 F   0  0  0  0  0  0  0  0  0  0  0  0
  1  2  1  0
  2  3  1  0
  3  4  2  0
  4  5  1  0
  5  6  2  0
  6  7  1  0
  7  8  2  0
  8  9  1  0
  9 10  3  0
 10 11  1  0
 11 12  2  0
 12 13  1  0
 13 14  2  0
 14 15  1  0
 15 16  1  0
 16 17  2  0
 17 18  1  0
 18 19  2  0
  6 20  1  0
 20 21  2  0
 20 22  1  0
 22 23  1  0
 23 24  2  0
 24 25  1  0
 25 26  2  0
 26 27  1  0
 27 28  1  0
 28 29  1  0
 29 30  1  0
 30 31  1  0
 31 32  1  0
 31 33  1  0
 33 34  1  0
 26 35  1  0
 35 36  2  0
 35 37  1  0
 37 38  1  0
 37 39  1  0
 37 40  1  0
  8  3  1  0
 19 11  1  0
 18 14  1  0
 36 23  1  0
 34 28  1  0
M  END
>  <pIC50>  (554) 
8.6175

>  <ChEMBL_ID>  (554) 
CHEMBL2316584

>  <document_journal>  (554) 
J. Med. Chem.

>  <bao_endpoint>  (554) 
BAO_0000190

>  <potential_duplicate>  (554) 
False

>  <uo_units>  (554) 
UO_0000065

>  <canonical_smiles>  (554) 
CCc1ccc(cc1C#Cc2cnc3[nH]ncc3c2)C(=O)Nc4ccc(CN5CCN(C)CC5)c(c4)C(F)(F)F

>  <parent_molecule_chembl_id>  (554) 
CHEMBL2316584

>  <assay_type>  (554) 
B

>  <src_id>  (554) 
1

>  <ligand_efficiency>  (554) 
{u'le': u'0.3', u'bei': u'16.27', u'sei': u'11.53', u'lle': u'3.56'}

>  <standard_flag>  (554) 
True

>  <molecule_chembl_id>  (554) 
CHEMBL2316584

>  <target_organism>  (554) 
Homo sapiens

>  <standard_units>  (554) 
nM

>  <record_id>  (554) 
1847115

>  <document_chembl_id>  (554) 
CHEMBL2311339

>  <bao_format>  (554) 
BAO_0000219

>  <data_validity_description>  (554) 
None

>  <activity_id>  (554) 
12623332

>  <standard_type>  (554) 
IC50

>  <target_chembl_id>  (554) 
CHEMBL1862

>  <data_validity_comment>  (554) 
None

>  <published_value>  (554) 
1.28

>  <document_year>  (554) 
2013

>  <target_pref_name>  (554) 
Tyrosine-protein kinase ABL

>  <assay_chembl_id>  (554) 
CHEMBL2320765

>  <standard_relation>  (554) 
=

>  <assay_description>  (554) 
Inhibition of human recombinant ABL1 Y253F mutant expressed in insect cells after 30 mins by FRET assay

>  <published_relation>  (554) 
=

>  <standard_value>  (554) 
1.28

>  <qudt_units>  (554) 
http://www.openphacts.org/units/Nanomolar

>  <target_tax_id>  (554) 
9606

>  <bao_label>  (554) 
cell-based format

>  <published_units>  (554) 
nM

>  <pchembl_value>  (554) 
8.89

>  <published_type>  (554) 
IC50

>  <activity_comment>  (554) 
None

$$$$

     RDKit          

 38 42  0  0  0  0  0  0  0  0999 V2000
    0.0000    0.0000    0.0000 C   0  0  0  0  0  0  0  0  0  0  0  0
    0.0000    0.0000    0.0000 N   0  0  0  0  0  0  0  0  0  0  0  0
    0.0000    0.0000    0.0000 C   0  0  0  0  0  0  0  0  0  0  0  0
    0.0000    0.0000    0.0000 C   0  0  0  0  0  0  0  0  0  0  0  0
    0.0000    0.0000    0.0000 N   0  0  0  0  0  0  0  0  0  0  0  0
    0.0000    0.0000    0.0000 C   0  0  0  0  0  0  0  0  0  0  0  0
    0.0000    0.0000    0.0000 C   0  0  0  0  0  0  0  0  0  0  0  0
    0.0000    0.0000    0.0000 C   0  0  0  0  0  0  0  0  0  0  0  0
    0.0000    0.0000    0.0000 C   0  0  0  0  0  0  0  0  0  0  0  0
    0.0000    0.0000    0.0000 C   0  0  0  0  0  0  0  0  0  0  0  0
    0.0000    0.0000    0.0000 N   0  0  0  0  0  0  0  0  0  0  0  0
    0.0000    0.0000    0.0000 C   0  0  0  0  0  0  0  0  0  0  0  0
    0.0000    0.0000    0.0000 O   0  0  0  0  0  0  0  0  0  0  0  0
    0.0000    0.0000    0.0000 C   0  0  0  0  0  0  0  0  0  0  0  0
    0.0000    0.0000    0.0000 C   0  0  0  0  0  0  0  0  0  0  0  0
    0.0000    0.0000    0.0000 C   0  0  0  0  0  0  0  0  0  0  0  0
    0.0000    0.0000    0.0000 C   0  0  0  0  0  0  0  0  0  0  0  0
    0.0000    0.0000    0.0000 C   0  0  0  0  0  0  0  0  0  0  0  0
    0.0000    0.0000    0.0000 C   0  0  0  0  0  0  0  0  0  0  0  0
    0.0000    0.0000    0.0000 C   0  0  0  0  0  0  0  0  0  0  0  0
    0.0000    0.0000    0.0000 C   0  0  0  0  0  0  0  0  0  0  0  0
    0.0000    0.0000    0.0000 C   0  0  0  0  0  0  0  0  0  0  0  0
    0.0000    0.0000    0.0000 C   0  0  0  0  0  0  0  0  0  0  0  0
    0.0000    0.0000    0.0000 N   0  0  0  0  0  0  0  0  0  0  0  0
    0.0000    0.0000    0.0000 C   0  0  0  0  0  0  0  0  0  0  0  0
    0.0000    0.0000    0.0000 N   0  0  0  0  0  0  0  0  0  0  0  0
    0.0000    0.0000    0.0000 N   0  0  0  0  0  0  0  0  0  0  0  0
    0.0000    0.0000    0.0000 C   0  0  0  0  0  0  0  0  0  0  0  0
    0.0000    0.0000    0.0000 C   0  0  0  0  0  0  0  0  0  0  0  0
    0.0000    0.0000    0.0000 C   0  0  0  0  0  0  0  0  0  0  0  0
    0.0000    0.0000    0.0000 C   0  0  0  0  0  0  0  0  0  0  0  0
    0.0000    0.0000    0.0000 C   0  0  0  0  0  0  0  0  0  0  0  0
    0.0000    0.0000    0.0000 C   0  0  0  0  0  0  0  0  0  0  0  0
    0.0000    0.0000    0.0000 F   0  0  0  0  0  0  0  0  0  0  0  0
    0.0000    0.0000    0.0000 F   0  0  0  0  0  0  0  0  0  0  0  0
    0.0000    0.0000    0.0000 F   0  0  0  0  0  0  0  0  0  0  0  0
    0.0000    0.0000    0.0000 C   0  0  0  0  0  0  0  0  0  0  0  0
    0.0000    0.0000    0.0000 C   0  0  0  0  0  0  0  0  0  0  0  0
  1  2  1  0
  2  3  1  0
  3  4  1  0
  4  5  1  0
  5  6  1  0
  6  7  1  0
  7  8  2  0
  8  9  1  0
  9 10  2  0
 10 11  1  0
 11 12  1  0
 12 13  2  0
 12 14  1  0
 14 15  2  0
 15 16  1  0
 16 17  2  0
 17 18  1  0
 18 19  2  0
 18 20  1  0
 20 21  3  0
 21 22  1  0
 22 23  2  0
 23 24  1  0
 24 25  2  0
 25 26  1  0
 26 27  1  0
 27 28  2  0
 28 29  1  0
 29 30  2  0
 10 31  1  0
 31 32  2  0
 32 33  1  0
 33 34  1  0
 33 35  1  0
 33 36  1  0
  5 37  1  0
 37 38  1  0
 38  2  1  0
 32  7  1  0
 19 14  1  0
 30 22  1  0
 29 25  1  0
M  END
>  <pIC50>  (555) 
9.30125

>  <ChEMBL_ID>  (555) 
CHEMBL2316583

>  <document_journal>  (555) 
J. Med. Chem.

>  <bao_endpoint>  (555) 
BAO_0000190

>  <potential_duplicate>  (555) 
False

>  <uo_units>  (555) 
UO_0000065

>  <canonical_smiles>  (555) 
CN1CCN(Cc2ccc(NC(=O)c3cccc(c3)C#Cc4cnc5[nH]ncc5c4)cc2C(F)(F)F)CC1

>  <parent_molecule_chembl_id>  (555) 
CHEMBL2316583

>  <assay_type>  (555) 
B

>  <src_id>  (555) 
1

>  <ligand_efficiency>  (555) 
{u'le': u'0.35', u'bei': u'18.84', u'sei': u'12.66', u'lle': u'5.38'}

>  <standard_flag>  (555) 
True

>  <molecule_chembl_id>  (555) 
CHEMBL2316583

>  <target_organism>  (555) 
Homo sapiens

>  <standard_units>  (555) 
nM

>  <record_id>  (555) 
1847114

>  <document_chembl_id>  (555) 
CHEMBL2311339

>  <bao_format>  (555) 
BAO_0000219

>  <data_validity_description>  (555) 
None

>  <activity_id>  (555) 
12623333

>  <standard_type>  (555) 
IC50

>  <target_chembl_id>  (555) 
CHEMBL1862

>  <data_validity_comment>  (555) 
None

>  <published_value>  (555) 
0.17

>  <document_year>  (555) 
2013

>  <target_pref_name>  (555) 
Tyrosine-protein kinase ABL

>  <assay_chembl_id>  (555) 
CHEMBL2320765

>  <standard_relation>  (555) 
=

>  <assay_description>  (555) 
Inhibition of human recombinant ABL1 Y253F mutant expressed in insect cells after 30 mins by FRET assay

>  <published_relation>  (555) 
=

>  <standard_value>  (555) 
0.17

>  <qudt_units>  (555) 
http://www.openphacts.org/units/Nanomolar

>  <target_tax_id>  (555) 
9606

>  <bao_label>  (555) 
cell-based format

>  <published_units>  (555) 
nM

>  <pchembl_value>  (555) 
9.77

>  <published_type>  (555) 
IC50

>  <activity_comment>  (555) 
None

$$$$

     RDKit          

 39 43  0  0  0  0  0  0  0  0999 V2000
    0.0000    0.0000    0.0000 C   0  0  0  0  0  0  0  0  0  0  0  0
    0.0000    0.0000    0.0000 N   0  0  0  0  0  0  0  0  0  0  0  0
    0.0000    0.0000    0.0000 C   0  0  0  0  0  0  0  0  0  0  0  0
    0.0000    0.0000    0.0000 C   0  0  0  0  0  0  0  0  0  0  0  0
    0.0000    0.0000    0.0000 N   0  0  0  0  0  0  0  0  0  0  0  0
    0.0000    0.0000    0.0000 C   0  0  0  0  0  0  0  0  0  0  0  0
    0.0000    0.0000    0.0000 C   0  0  0  0  0  0  0  0  0  0  0  0
    0.0000    0.0000    0.0000 C   0  0  0  0  0  0  0  0  0  0  0  0
    0.0000    0.0000    0.0000 C   0  0  0  0  0  0  0  0  0  0  0  0
    0.0000    0.0000    0.0000 C   0  0  0  0  0  0  0  0  0  0  0  0
    0.0000    0.0000    0.0000 N   0  0  0  0  0  0  0  0  0  0  0  0
    0.0000    0.0000    0.0000 C   0  0  0  0  0  0  0  0  0  0  0  0
    0.0000    0.0000    0.0000 O   0  0  0  0  0  0  0  0  0  0  0  0
    0.0000    0.0000    0.0000 C   0  0  0  0  0  0  0  0  0  0  0  0
    0.0000    0.0000    0.0000 C   0  0  0  0  0  0  0  0  0  0  0  0
    0.0000    0.0000    0.0000 C   0  0  0  0  0  0  0  0  0  0  0  0
    0.0000    0.0000    0.0000 C   0  0  0  0  0  0  0  0  0  0  0  0
    0.0000    0.0000    0.0000 C   0  0  0  0  0  0  0  0  0  0  0  0
    0.0000    0.0000    0.0000 C   0  0  0  0  0  0  0  0  0  0  0  0
    0.0000    0.0000    0.0000 C   0  0  0  0  0  0  0  0  0  0  0  0
    0.0000    0.0000    0.0000 C   0  0  0  0  0  0  0  0  0  0  0  0
    0.0000    0.0000    0.0000 C   0  0  0  0  0  0  0  0  0  0  0  0
    0.0000    0.0000    0.0000 C   0  0  0  0  0  0  0  0  0  0  0  0
    0.0000    0.0000    0.0000 C   0  0  0  0  0  0  0  0  0  0  0  0
    0.0000    0.0000    0.0000 N   0  0  0  0  0  0  0  0  0  0  0  0
    0.0000    0.0000    0.0000 C   0  0  0  0  0  0  0  0  0  0  0  0
    0.0000    0.0000    0.0000 N   0  0  0  0  0  0  0  0  0  0  0  0
    0.0000    0.0000    0.0000 N   0  0  0  0  0  0  0  0  0  0  0  0
    0.0000    0.0000    0.0000 C   0  0  0  0  0  0  0  0  0  0  0  0
    0.0000    0.0000    0.0000 C   0  0  0  0  0  0  0  0  0  0  0  0
    0.0000    0.0000    0.0000 C   0  0  0  0  0  0  0  0  0  0  0  0
    0.0000    0.0000    0.0000 C   0  0  0  0  0  0  0  0  0  0  0  0
    0.0000    0.0000    0.0000 C   0  0  0  0  0  0  0  0  0  0  0  0
    0.0000    0.0000    0.0000 C   0  0  0  0  0  0  0  0  0  0  0  0
    0.0000    0.0000    0.0000 F   0  0  0  0  0  0  0  0  0  0  0  0
    0.0000    0.0000    0.0000 F   0  0  0  0  0  0  0  0  0  0  0  0
    0.0000    0.0000    0.0000 F   0  0  0  0  0  0  0  0  0  0  0  0
    0.0000    0.0000    0.0000 C   0  0  0  0  0  0  0  0  0  0  0  0
    0.0000    0.0000    0.0000 C   0  0  0  0  0  0  0  0  0  0  0  0
  1  2  1  0
  2  3  1  0
  3  4  1  0
  4  5  1  0
  5  6  1  0
  6  7  1  0
  7  8  2  0
  8  9  1  0
  9 10  2  0
 10 11  1  0
 11 12  1  0
 12 13  2  0
 12 14  1  0
 14 15  2  0
 15 16  1  0
 16 17  2  0
 17 18  1  0
 17 19  1  0
 19 20  2  0
 19 21  1  0
 21 22  3  0
 22 23  1  0
 23 24  2  0
 24 25  1  0
 25 26  2  0
 26 27  1  0
 27 28  1  0
 28 29  2  0
 29 30  1  0
 30 31  2  0
 10 32  1  0
 32 33  2  0
 33 34  1  0
 34 35  1  0
 34 36  1  0
 34 37  1  0
  5 38  1  0
 38 39  1  0
 39  2  1  0
 33  7  1  0
 20 14  1  0
 31 23  1  0
 30 26  1  0
M  END
>  <pIC50>  (556) 
9.455

>  <ChEMBL_ID>  (556) 
CHEMBL2316582

>  <document_journal>  (556) 
J. Med. Chem.

>  <bao_endpoint>  (556) 
BAO_0000190

>  <potential_duplicate>  (556) 
False

>  <uo_units>  (556) 
UO_0000065

>  <canonical_smiles>  (556) 
CN1CCN(Cc2ccc(NC(=O)c3ccc(C)c(c3)C#Cc4cnc5[nH]ncc5c4)cc2C(F)(F)F)CC1

>  <parent_molecule_chembl_id>  (556) 
CHEMBL2316582

>  <assay_type>  (556) 
B

>  <src_id>  (556) 
1

>  <ligand_efficiency>  (556) 
{u'le': u'0.33', u'bei': u'17.76', u'sei': u'12.26', u'lle': u'4.58'}

>  <standard_flag>  (556) 
True

>  <molecule_chembl_id>  (556) 
CHEMBL2316582

>  <target_organism>  (556) 
Homo sapiens

>  <standard_units>  (556) 
nM

>  <record_id>  (556) 
1847113

>  <document_chembl_id>  (556) 
CHEMBL2311339

>  <bao_format>  (556) 
BAO_0000219

>  <data_validity_description>  (556) 
None

>  <activity_id>  (556) 
12623334

>  <standard_type>  (556) 
IC50

>  <target_chembl_id>  (556) 
CHEMBL1862

>  <data_validity_comment>  (556) 
None

>  <published_value>  (556) 
0.35

>  <document_year>  (556) 
2013

>  <target_pref_name>  (556) 
Tyrosine-protein kinase ABL

>  <assay_chembl_id>  (556) 
CHEMBL2320765

>  <standard_relation>  (556) 
=

>  <assay_description>  (556) 
Inhibition of human recombinant ABL1 Y253F mutant expressed in insect cells after 30 mins by FRET assay

>  <published_relation>  (556) 
=

>  <standard_value>  (556) 
0.35

>  <qudt_units>  (556) 
http://www.openphacts.org/units/Nanomolar

>  <target_tax_id>  (556) 
9606

>  <bao_label>  (556) 
cell-based format

>  <published_units>  (556) 
nM

>  <pchembl_value>  (556) 
9.46

>  <published_type>  (556) 
IC50

>  <activity_comment>  (556) 
None

$$$$

     RDKit          

 34 37  0  0  0  0  0  0  0  0999 V2000
    0.0000    0.0000    0.0000 Cl  0  0  0  0  0  0  0  0  0  0  0  0
    0.0000    0.0000    0.0000 C   0  0  0  0  0  0  0  0  0  0  0  0
    0.0000    0.0000    0.0000 C   0  0  0  0  0  0  0  0  0  0  0  0
    0.0000    0.0000    0.0000 C   0  0  0  0  0  0  0  0  0  0  0  0
    0.0000    0.0000    0.0000 C   0  0  0  0  0  0  0  0  0  0  0  0
    0.0000    0.0000    0.0000 Cl  0  0  0  0  0  0  0  0  0  0  0  0
    0.0000    0.0000    0.0000 C   0  0  0  0  0  0  0  0  0  0  0  0
    0.0000    0.0000    0.0000 C   0  0  0  0  0  0  0  0  0  0  0  0
    0.0000    0.0000    0.0000 N   0  0  0  0  0  0  0  0  0  0  0  0
    0.0000    0.0000    0.0000 C   0  0  0  0  0  0  0  0  0  0  0  0
    0.0000    0.0000    0.0000 N   0  0  0  0  0  0  0  0  0  0  0  0
    0.0000    0.0000    0.0000 C   0  0  0  0  0  0  0  0  0  0  0  0
    0.0000    0.0000    0.0000 C   0  0  0  0  0  0  0  0  0  0  0  0
    0.0000    0.0000    0.0000 C   0  0  0  0  0  0  0  0  0  0  0  0
    0.0000    0.0000    0.0000 O   0  0  0  0  0  0  0  0  0  0  0  0
    0.0000    0.0000    0.0000 N   0  0  0  0  0  0  0  0  0  0  0  0
    0.0000    0.0000    0.0000 C   0  0  0  0  0  0  0  0  0  0  0  0
    0.0000    0.0000    0.0000 C   0  0  0  0  0  0  0  0  0  0  0  0
    0.0000    0.0000    0.0000 C   0  0  0  0  0  0  0  0  0  0  0  0
    0.0000    0.0000    0.0000 N   0  0  0  0  0  0  0  0  0  0  0  0
    0.0000    0.0000    0.0000 C   0  0  0  0  0  0  0  0  0  0  0  0
    0.0000    0.0000    0.0000 C   0  0  0  0  0  0  0  0  0  0  0  0
    0.0000    0.0000    0.0000 O   0  0  0  0  0  0  0  0  0  0  0  0
    0.0000    0.0000    0.0000 C   0  0  0  0  0  0  0  0  0  0  0  0
    0.0000    0.0000    0.0000 O   0  0  0  0  0  0  0  0  0  0  0  0
    0.0000    0.0000    0.0000 C   0  0  0  0  0  0  0  0  0  0  0  0
    0.0000    0.0000    0.0000 N   0  0  0  0  0  0  0  0  0  0  0  0
    0.0000    0.0000    0.0000 C   0  0  0  0  0  0  0  0  0  0  0  0
    0.0000    0.0000    0.0000 C   0  0  0  0  0  0  0  0  0  0  0  0
    0.0000    0.0000    0.0000 C   0  0  0  0  0  0  0  0  0  0  0  0
    0.0000    0.0000    0.0000 C   0  0  0  0  0  0  0  0  0  0  0  0
    0.0000    0.0000    0.0000 C   0  0  0  0  0  0  0  0  0  0  0  0
    0.0000    0.0000    0.0000 N   0  0  0  0  0  0  0  0  0  0  0  0
    0.0000    0.0000    0.0000 C   0  0  0  0  0  0  0  0  0  0  0  0
  1  2  1  0
  2  3  2  0
  3  4  1  0
  4  5  2  0
  5  6  1  0
  5  7  1  0
  7  8  1  0
  8  9  1  0
  9 10  1  0
 10 11  2  0
 11 12  1  0
 12 13  2  0
 13 14  1  0
 14 15  2  0
 14 16  1  0
 16 17  1  0
 17 18  1  0
 18 19  1  0
 19 20  1  0
 20 21  1  0
 21 22  1  0
 22 23  1  0
 23 24  1  0
 24 25  2  0
 13 26  1  0
 26 27  1  0
 27 28  1  0
 28 29  1  0
 29 30  1  0
 30 31  1  0
 31 32  1  0
 26 33  2  0
  7 34  2  0
 34  2  1  0
 33 10  1  0
 24 20  1  0
 32 28  1  0
M  END
>  <pIC50>  (557) 
4.79

>  <ChEMBL_ID>  (557) 
CHEMBL2312304

>  <document_journal>  (557) 
Bioorg. Med. Chem. Lett.

>  <bao_endpoint>  (557) 
BAO_0000190

>  <potential_duplicate>  (557) 
False

>  <uo_units>  (557) 
UO_0000065

>  <canonical_smiles>  (557) 
Clc1ccc(Cl)c(CNc2ncc(C(=O)NCCCN3CCOC3=O)c(NC4CCCC4)n2)c1

>  <parent_molecule_chembl_id>  (557) 
CHEMBL2312304

>  <assay_type>  (557) 
B

>  <src_id>  (557) 
1

>  <ligand_efficiency>  (557) 
{u'le': u'0.19', u'bei': u'9.43', u'sei': u'4.41', u'lle': u'0.62'}

>  <standard_flag>  (557) 
True

>  <molecule_chembl_id>  (557) 
CHEMBL2312304

>  <target_organism>  (557) 
Homo sapiens

>  <standard_units>  (557) 
nM

>  <record_id>  (557) 
1841874

>  <document_chembl_id>  (557) 
CHEMBL2311468

>  <bao_format>  (557) 
BAO_0000357

>  <data_validity_description>  (557) 
None

>  <activity_id>  (557) 
12629569

>  <standard_type>  (557) 
IC50

>  <target_chembl_id>  (557) 
CHEMBL1862

>  <data_validity_comment>  (557) 
None

>  <published_value>  (557) 
16.36

>  <document_year>  (557) 
2013

>  <target_pref_name>  (557) 
Tyrosine-protein kinase ABL

>  <assay_chembl_id>  (557) 
CHEMBL2319140

>  <standard_relation>  (557) 
=

>  <assay_description>  (557) 
Inhibition of ABL (unknown origin)

>  <published_relation>  (557) 
=

>  <standard_value>  (557) 
16360

>  <qudt_units>  (557) 
http://www.openphacts.org/units/Nanomolar

>  <target_tax_id>  (557) 
9606

>  <bao_label>  (557) 
single protein format

>  <published_units>  (557) 
uM

>  <pchembl_value>  (557) 
4.79

>  <published_type>  (557) 
IC50

>  <activity_comment>  (557) 
None

$$$$

     RDKit          

 34 37  0  0  0  0  0  0  0  0999 V2000
    0.0000    0.0000    0.0000 Cl  0  0  0  0  0  0  0  0  0  0  0  0
    0.0000    0.0000    0.0000 C   0  0  0  0  0  0  0  0  0  0  0  0
    0.0000    0.0000    0.0000 C   0  0  0  0  0  0  0  0  0  0  0  0
    0.0000    0.0000    0.0000 C   0  0  0  0  0  0  0  0  0  0  0  0
    0.0000    0.0000    0.0000 C   0  0  0  0  0  0  0  0  0  0  0  0
    0.0000    0.0000    0.0000 Cl  0  0  0  0  0  0  0  0  0  0  0  0
    0.0000    0.0000    0.0000 C   0  0  0  0  0  0  0  0  0  0  0  0
    0.0000    0.0000    0.0000 C   0  0  0  0  0  0  0  0  0  0  0  0
    0.0000    0.0000    0.0000 N   0  0  0  0  0  0  0  0  0  0  0  0
    0.0000    0.0000    0.0000 C   0  0  0  0  0  0  0  0  0  0  0  0
    0.0000    0.0000    0.0000 N   0  0  0  0  0  0  0  0  0  0  0  0
    0.0000    0.0000    0.0000 C   0  0  0  0  0  0  0  0  0  0  0  0
    0.0000    0.0000    0.0000 C   0  0  0  0  0  0  0  0  0  0  0  0
    0.0000    0.0000    0.0000 C   0  0  0  0  0  0  0  0  0  0  0  0
    0.0000    0.0000    0.0000 O   0  0  0  0  0  0  0  0  0  0  0  0
    0.0000    0.0000    0.0000 N   0  0  0  0  0  0  0  0  0  0  0  0
    0.0000    0.0000    0.0000 C   0  0  0  0  0  0  0  0  0  0  0  0
    0.0000    0.0000    0.0000 C   0  0  0  0  0  0  0  0  0  0  0  0
    0.0000    0.0000    0.0000 C   0  0  0  0  0  0  0  0  0  0  0  0
    0.0000    0.0000    0.0000 N   0  0  0  0  0  0  0  0  0  0  0  0
    0.0000    0.0000    0.0000 C   0  0  0  0  0  0  0  0  0  0  0  0
    0.0000    0.0000    0.0000 C   0  0  0  0  0  0  0  0  0  0  0  0
    0.0000    0.0000    0.0000 C   0  0  0  0  0  0  0  0  0  0  0  0
    0.0000    0.0000    0.0000 C   0  0  0  0  0  0  0  0  0  0  0  0
    0.0000    0.0000    0.0000 O   0  0  0  0  0  0  0  0  0  0  0  0
    0.0000    0.0000    0.0000 C   0  0  0  0  0  0  0  0  0  0  0  0
    0.0000    0.0000    0.0000 N   0  0  0  0  0  0  0  0  0  0  0  0
    0.0000    0.0000    0.0000 C   0  0  0  0  0  0  0  0  0  0  0  0
    0.0000    0.0000    0.0000 C   0  0  0  0  0  0  0  0  0  0  0  0
    0.0000    0.0000    0.0000 C   0  0  0  0  0  0  0  0  0  0  0  0
    0.0000    0.0000    0.0000 C   0  0  0  0  0  0  0  0  0  0  0  0
    0.0000    0.0000    0.0000 C   0  0  0  0  0  0  0  0  0  0  0  0
    0.0000    0.0000    0.0000 N   0  0  0  0  0  0  0  0  0  0  0  0
    0.0000    0.0000    0.0000 C   0  0  0  0  0  0  0  0  0  0  0  0
  1  2  1  0
  2  3  2  0
  3  4  1  0
  4  5  2  0
  5  6  1  0
  5  7  1  0
  7  8  1  0
  8  9  1  0
  9 10  1  0
 10 11  2  0
 11 12  1  0
 12 13  2  0
 13 14  1  0
 14 15  2  0
 14 16  1  0
 16 17  1  0
 17 18  1  0
 18 19  1  0
 19 20  1  0
 20 21  1  0
 21 22  1  0
 22 23  1  0
 23 24  1  0
 24 25  2  0
 13 26  1  0
 26 27  1  0
 27 28  1  0
 28 29  1  0
 29 30  1  0
 30 31  1  0
 31 32  1  0
 26 33  2  0
  7 34  2  0
 34  2  1  0
 33 10  1  0
 24 20  1  0
 32 28  1  0
M  END
>  <pIC50>  (558) 
4.92

>  <ChEMBL_ID>  (558) 
CHEMBL2312303

>  <document_journal>  (558) 
Bioorg. Med. Chem. Lett.

>  <bao_endpoint>  (558) 
BAO_0000190

>  <potential_duplicate>  (558) 
False

>  <uo_units>  (558) 
UO_0000065

>  <canonical_smiles>  (558) 
Clc1ccc(Cl)c(CNc2ncc(C(=O)NCCCN3CCCC3=O)c(NC4CCCC4)n2)c1

>  <parent_molecule_chembl_id>  (558) 
CHEMBL2312303

>  <assay_type>  (558) 
B

>  <src_id>  (558) 
1

>  <ligand_efficiency>  (558) 
{u'le': u'0.2', u'bei': u'9.73', u'sei': u'4.96', u'lle': u'0.95'}

>  <standard_flag>  (558) 
True

>  <molecule_chembl_id>  (558) 
CHEMBL2312303

>  <target_organism>  (558) 
Homo sapiens

>  <standard_units>  (558) 
nM

>  <record_id>  (558) 
1841873

>  <document_chembl_id>  (558) 
CHEMBL2311468

>  <bao_format>  (558) 
BAO_0000357

>  <data_validity_description>  (558) 
None

>  <activity_id>  (558) 
12629570

>  <standard_type>  (558) 
IC50

>  <target_chembl_id>  (558) 
CHEMBL1862

>  <data_validity_comment>  (558) 
None

>  <published_value>  (558) 
12.03

>  <document_year>  (558) 
2013

>  <target_pref_name>  (558) 
Tyrosine-protein kinase ABL

>  <assay_chembl_id>  (558) 
CHEMBL2319140

>  <standard_relation>  (558) 
=

>  <assay_description>  (558) 
Inhibition of ABL (unknown origin)

>  <published_relation>  (558) 
=

>  <standard_value>  (558) 
12030

>  <qudt_units>  (558) 
http://www.openphacts.org/units/Nanomolar

>  <target_tax_id>  (558) 
9606

>  <bao_label>  (558) 
single protein format

>  <published_units>  (558) 
uM

>  <pchembl_value>  (558) 
4.92

>  <published_type>  (558) 
IC50

>  <activity_comment>  (558) 
None

$$$$

     RDKit          

 37 40  0  0  0  0  0  0  0  0999 V2000
    0.0000    0.0000    0.0000 C   0  0  0  0  0  0  0  0  0  0  0  0
    0.0000    0.0000    0.0000 O   0  0  0  0  0  0  0  0  0  0  0  0
    0.0000    0.0000    0.0000 C   0  0  0  0  0  0  0  0  0  0  0  0
    0.0000    0.0000    0.0000 C   0  0  0  0  0  0  0  0  0  0  0  0
    0.0000    0.0000    0.0000 C   0  0  0  0  0  0  0  0  0  0  0  0
    0.0000    0.0000    0.0000 C   0  0  0  0  0  0  0  0  0  0  0  0
    0.0000    0.0000    0.0000 C   0  0  0  0  0  0  0  0  0  0  0  0
    0.0000    0.0000    0.0000 C   0  0  0  0  0  0  0  0  0  0  0  0
    0.0000    0.0000    0.0000 N   0  0  0  0  0  0  0  0  0  0  0  0
    0.0000    0.0000    0.0000 C   0  0  0  0  0  0  0  0  0  0  0  0
    0.0000    0.0000    0.0000 N   0  0  0  0  0  0  0  0  0  0  0  0
    0.0000    0.0000    0.0000 C   0  0  0  0  0  0  0  0  0  0  0  0
    0.0000    0.0000    0.0000 C   0  0  0  0  0  0  0  0  0  0  0  0
    0.0000    0.0000    0.0000 C   0  0  0  0  0  0  0  0  0  0  0  0
    0.0000    0.0000    0.0000 O   0  0  0  0  0  0  0  0  0  0  0  0
    0.0000    0.0000    0.0000 N   0  0  0  0  0  0  0  0  0  0  0  0
    0.0000    0.0000    0.0000 C   0  0  0  0  0  0  0  0  0  0  0  0
    0.0000    0.0000    0.0000 C   0  0  0  0  0  0  0  0  0  0  0  0
    0.0000    0.0000    0.0000 C   0  0  0  0  0  0  0  0  0  0  0  0
    0.0000    0.0000    0.0000 N   0  0  0  0  0  0  0  0  0  0  0  0
    0.0000    0.0000    0.0000 C   0  0  0  0  0  0  0  0  0  0  0  0
    0.0000    0.0000    0.0000 C   0  0  0  0  0  0  0  0  0  0  0  0
    0.0000    0.0000    0.0000 C   0  0  0  0  0  0  0  0  0  0  0  0
    0.0000    0.0000    0.0000 C   0  0  0  0  0  0  0  0  0  0  0  0
    0.0000    0.0000    0.0000 O   0  0  0  0  0  0  0  0  0  0  0  0
    0.0000    0.0000    0.0000 C   0  0  0  0  0  0  0  0  0  0  0  0
    0.0000    0.0000    0.0000 N   0  0  0  0  0  0  0  0  0  0  0  0
    0.0000    0.0000    0.0000 C   0  0  0  0  0  0  0  0  0  0  0  0
    0.0000    0.0000    0.0000 C   0  0  0  0  0  0  0  0  0  0  0  0
    0.0000    0.0000    0.0000 C   0  0  0  0  0  0  0  0  0  0  0  0
    0.0000    0.0000    0.0000 C   0  0  0  0  0  0  0  0  0  0  0  0
    0.0000    0.0000    0.0000 C   0  0  0  0  0  0  0  0  0  0  0  0
    0.0000    0.0000    0.0000 N   0  0  0  0  0  0  0  0  0  0  0  0
    0.0000    0.0000    0.0000 C   0  0  0  0  0  0  0  0  0  0  0  0
    0.0000    0.0000    0.0000 C   0  0  0  0  0  0  0  0  0  0  0  0
    0.0000    0.0000    0.0000 O   0  0  0  0  0  0  0  0  0  0  0  0
    0.0000    0.0000    0.0000 C   0  0  0  0  0  0  0  0  0  0  0  0
  1  2  1  0
  2  3  1  0
  3  4  2  0
  4  5  1  0
  5  6  2  0
  6  7  1  0
  7  8  1  0
  8  9  1  0
  9 10  1  0
 10 11  2  0
 11 12  1  0
 12 13  2  0
 13 14  1  0
 14 15  2  0
 14 16  1  0
 16 17  1  0
 17 18  1  0
 18 19  1  0
 19 20  1  0
 20 21  1  0
 21 22  1  0
 22 23  1  0
 23 24  1  0
 24 25  2  0
 13 26  1  0
 26 27  1  0
 27 28  1  0
 28 29  1  0
 29 30  1  0
 30 31  1  0
 31 32  1  0
 26 33  2  0
  6 34  1  0
 34 35  2  0
 35 36  1  0
 36 37  1  0
 35  3  1  0
 33 10  1  0
 24 20  1  0
 32 28  1  0
M  END
>  <pIC50>  (559) 
6.04

>  <ChEMBL_ID>  (559) 
CHEMBL2312290

>  <document_journal>  (559) 
Bioorg. Med. Chem. Lett.

>  <bao_endpoint>  (559) 
BAO_0000190

>  <potential_duplicate>  (559) 
False

>  <uo_units>  (559) 
UO_0000065

>  <canonical_smiles>  (559) 
COc1ccc(CCNc2ncc(C(=O)NCCCN3CCCC3=O)c(NC4CCCC4)n2)cc1OC

>  <parent_molecule_chembl_id>  (559) 
CHEMBL2312290

>  <assay_type>  (559) 
B

>  <src_id>  (559) 
1

>  <ligand_efficiency>  (559) 
{u'le': u'0.22', u'bei': u'11.83', u'sei': u'5.13', u'lle': u'3.11'}

>  <standard_flag>  (559) 
True

>  <molecule_chembl_id>  (559) 
CHEMBL2312290

>  <target_organism>  (559) 
Homo sapiens

>  <standard_units>  (559) 
nM

>  <record_id>  (559) 
1841860

>  <document_chembl_id>  (559) 
CHEMBL2311468

>  <bao_format>  (559) 
BAO_0000357

>  <data_validity_description>  (559) 
None

>  <activity_id>  (559) 
12629572

>  <standard_type>  (559) 
IC50

>  <target_chembl_id>  (559) 
CHEMBL1862

>  <data_validity_comment>  (559) 
None

>  <published_value>  (559) 
0.91

>  <document_year>  (559) 
2013

>  <target_pref_name>  (559) 
Tyrosine-protein kinase ABL

>  <assay_chembl_id>  (559) 
CHEMBL2319140

>  <standard_relation>  (559) 
=

>  <assay_description>  (559) 
Inhibition of ABL (unknown origin)

>  <published_relation>  (559) 
=

>  <standard_value>  (559) 
910

>  <qudt_units>  (559) 
http://www.openphacts.org/units/Nanomolar

>  <target_tax_id>  (559) 
9606

>  <bao_label>  (559) 
single protein format

>  <published_units>  (559) 
uM

>  <pchembl_value>  (559) 
6.04

>  <published_type>  (559) 
IC50

>  <activity_comment>  (559) 
None

$$$$

     RDKit          

 31 34  0  0  0  0  0  0  0  0999 V2000
    0.0000    0.0000    0.0000 C   0  0  0  0  0  0  0  0  0  0  0  0
    0.0000    0.0000    0.0000 N   0  0  0  0  0  0  0  0  0  0  0  0
    0.0000    0.0000    0.0000 C   0  0  0  0  0  0  0  0  0  0  0  0
    0.0000    0.0000    0.0000 C   0  0  0  0  0  0  0  0  0  0  0  0
    0.0000    0.0000    0.0000 C   0  0  0  0  0  0  0  0  0  0  0  0
    0.0000    0.0000    0.0000 C   0  0  0  0  0  0  0  0  0  0  0  0
    0.0000    0.0000    0.0000 C   0  0  0  0  0  0  0  0  0  0  0  0
    0.0000    0.0000    0.0000 C   0  0  0  0  0  0  0  0  0  0  0  0
    0.0000    0.0000    0.0000 C   0  0  0  0  0  0  0  0  0  0  0  0
    0.0000    0.0000    0.0000 N   0  0  0  0  0  0  0  0  0  0  0  0
    0.0000    0.0000    0.0000 C   0  0  0  0  0  0  0  0  0  0  0  0
    0.0000    0.0000    0.0000 N   0  0  0  0  0  0  0  0  0  0  0  0
    0.0000    0.0000    0.0000 C   0  0  0  0  0  0  0  0  0  0  0  0
    0.0000    0.0000    0.0000 N   0  0  0  0  0  0  0  0  0  0  0  0
    0.0000    0.0000    0.0000 C   0  0  0  0  0  0  0  0  0  0  0  0
    0.0000    0.0000    0.0000 C   0  0  0  0  0  0  0  0  0  0  0  0
    0.0000    0.0000    0.0000 C   0  0  0  0  0  0  0  0  0  0  0  0
    0.0000    0.0000    0.0000 Cl  0  0  0  0  0  0  0  0  0  0  0  0
    0.0000    0.0000    0.0000 C   0  0  0  0  0  0  0  0  0  0  0  0
    0.0000    0.0000    0.0000 C   0  0  0  0  0  0  0  0  0  0  0  0
    0.0000    0.0000    0.0000 Cl  0  0  0  0  0  0  0  0  0  0  0  0
    0.0000    0.0000    0.0000 C   0  0  0  0  0  0  0  0  0  0  0  0
    0.0000    0.0000    0.0000 N   0  0  0  0  0  0  0  0  0  0  0  0
    0.0000    0.0000    0.0000 C   0  0  0  0  0  0  0  0  0  0  0  0
    0.0000    0.0000    0.0000 C   0  0  0  0  0  0  0  0  0  0  0  0
    0.0000    0.0000    0.0000 C   0  0  0  0  0  0  0  0  0  0  0  0
    0.0000    0.0000    0.0000 O   0  0  0  0  0  0  0  0  0  0  0  0
    0.0000    0.0000    0.0000 N   0  0  0  0  0  0  0  0  0  0  0  0
    0.0000    0.0000    0.0000 C   0  0  0  0  0  0  0  0  0  0  0  0
    0.0000    0.0000    0.0000 C   0  0  0  0  0  0  0  0  0  0  0  0
    0.0000    0.0000    0.0000 C   0  0  0  0  0  0  0  0  0  0  0  0
  1  2  1  0
  2  3  1  0
  2  4  1  0
  4  5  1  0
  5  6  1  0
  6  7  1  0
  7  8  1  0
  8  9  1  0
  7 10  1  0
 10 11  1  0
 11 12  2  0
 12 13  1  0
 13 14  1  0
 14 15  1  0
 15 16  2  0
 16 17  1  0
 17 18  1  0
 17 19  2  0
 19 20  1  0
 20 21  1  0
 20 22  2  0
 13 23  2  0
 23 24  1  0
 24 25  2  0
 25 26  1  0
 26 27  1  0
 27 28  1  0
 28 29  2  0
 29 30  1  0
 29 31  1  0
  9  4  1  0
 25 11  1  0
 22 15  1  0
 31 26  2  0
M  END
>  <pIC50>  (560) 
6.09

>  <ChEMBL_ID>  (560) 
CHEMBL2312654

>  <document_journal>  (560) 
Bioorg. Med. Chem. Lett.

>  <bao_endpoint>  (560) 
BAO_0000190

>  <potential_duplicate>  (560) 
False

>  <uo_units>  (560) 
UO_0000065

>  <canonical_smiles>  (560) 
CN(C)C1CCC(CC1)Nc2nc(Nc3cc(Cl)cc(Cl)c3)ncc2c4onc(C)c4

>  <parent_molecule_chembl_id>  (560) 
CHEMBL2312654

>  <assay_type>  (560) 
B

>  <src_id>  (560) 
1

>  <ligand_efficiency>  (560) 
{u'le': u'0.27', u'bei': u'13.2', u'sei': u'7.7', u'lle': u'0.44'}

>  <standard_flag>  (560) 
True

>  <molecule_chembl_id>  (560) 
CHEMBL2312654

>  <target_organism>  (560) 
Homo sapiens

>  <standard_units>  (560) 
nM

>  <record_id>  (560) 
1842315

>  <document_chembl_id>  (560) 
CHEMBL2311250

>  <bao_format>  (560) 
BAO_0000357

>  <data_validity_description>  (560) 
None

>  <activity_id>  (560) 
12631762

>  <standard_type>  (560) 
IC50

>  <target_chembl_id>  (560) 
CHEMBL1862

>  <data_validity_comment>  (560) 
None

>  <published_value>  (560) 
0.81

>  <document_year>  (560) 
2013

>  <target_pref_name>  (560) 
Tyrosine-protein kinase ABL

>  <assay_chembl_id>  (560) 
CHEMBL2317788

>  <standard_relation>  (560) 
=

>  <assay_description>  (560) 
Inhibition of ABL (unknown origin) in presence of ATP

>  <published_relation>  (560) 
=

>  <standard_value>  (560) 
810

>  <qudt_units>  (560) 
http://www.openphacts.org/units/Nanomolar

>  <target_tax_id>  (560) 
9606

>  <bao_label>  (560) 
single protein format

>  <published_units>  (560) 
uM

>  <pchembl_value>  (560) 
6.09

>  <published_type>  (560) 
IC50

>  <activity_comment>  (560) 
None

$$$$

     RDKit          

 32 35  0  0  0  0  0  0  0  0999 V2000
    0.0000    0.0000    0.0000 C   0  0  0  0  0  0  0  0  0  0  0  0
    0.0000    0.0000    0.0000 N   0  0  0  0  0  0  0  0  0  0  0  0
    0.0000    0.0000    0.0000 C   0  0  0  0  0  0  0  0  0  0  0  0
    0.0000    0.0000    0.0000 C   0  0  0  0  0  0  0  0  0  0  0  0
    0.0000    0.0000    0.0000 C   0  0  0  0  0  0  0  0  0  0  0  0
    0.0000    0.0000    0.0000 C   0  0  0  0  0  0  0  0  0  0  0  0
    0.0000    0.0000    0.0000 C   0  0  0  0  0  0  0  0  0  0  0  0
    0.0000    0.0000    0.0000 N   0  0  0  0  0  0  0  0  0  0  0  0
    0.0000    0.0000    0.0000 C   0  0  0  0  0  0  0  0  0  0  0  0
    0.0000    0.0000    0.0000 O   0  0  0  0  0  0  0  0  0  0  0  0
    0.0000    0.0000    0.0000 C   0  0  0  0  0  0  0  0  0  0  0  0
    0.0000    0.0000    0.0000 C   0  0  0  0  0  0  0  0  0  0  0  0
    0.0000    0.0000    0.0000 N   0  0  0  0  0  0  0  0  0  0  0  0
    0.0000    0.0000    0.0000 C   0  0  0  0  0  0  0  0  0  0  0  0
    0.0000    0.0000    0.0000 N   0  0  0  0  0  0  0  0  0  0  0  0
    0.0000    0.0000    0.0000 C   0  0  0  0  0  0  0  0  0  0  0  0
    0.0000    0.0000    0.0000 C   0  0  0  0  0  0  0  0  0  0  0  0
    0.0000    0.0000    0.0000 C   0  0  0  0  0  0  0  0  0  0  0  0
    0.0000    0.0000    0.0000 Cl  0  0  0  0  0  0  0  0  0  0  0  0
    0.0000    0.0000    0.0000 C   0  0  0  0  0  0  0  0  0  0  0  0
    0.0000    0.0000    0.0000 C   0  0  0  0  0  0  0  0  0  0  0  0
    0.0000    0.0000    0.0000 Cl  0  0  0  0  0  0  0  0  0  0  0  0
    0.0000    0.0000    0.0000 C   0  0  0  0  0  0  0  0  0  0  0  0
    0.0000    0.0000    0.0000 N   0  0  0  0  0  0  0  0  0  0  0  0
    0.0000    0.0000    0.0000 C   0  0  0  0  0  0  0  0  0  0  0  0
    0.0000    0.0000    0.0000 N   0  0  0  0  0  0  0  0  0  0  0  0
    0.0000    0.0000    0.0000 C   0  0  0  0  0  0  0  0  0  0  0  0
    0.0000    0.0000    0.0000 C   0  0  0  0  0  0  0  0  0  0  0  0
    0.0000    0.0000    0.0000 O   0  0  0  0  0  0  0  0  0  0  0  0
    0.0000    0.0000    0.0000 C   0  0  0  0  0  0  0  0  0  0  0  0
    0.0000    0.0000    0.0000 C   0  0  0  0  0  0  0  0  0  0  0  0
    0.0000    0.0000    0.0000 O   0  0  0  0  0  0  0  0  0  0  0  0
  1  2  1  0
  2  3  1  0
  3  4  1  0
  4  5  1  0
  5  6  1  0
  6  7  1  0
  5  8  1  0
  8  9  1  0
  9 10  2  0
  9 11  1  0
 11 12  2  0
 12 13  1  0
 13 14  2  0
 14 15  1  0
 15 16  1  0
 16 17  2  0
 17 18  1  0
 18 19  1  0
 18 20  2  0
 20 21  1  0
 21 22  1  0
 21 23  2  0
 14 24  1  0
 24 25  2  0
 25 26  1  0
 26 27  1  0
 27 28  1  0
 28 29  1  0
 29 30  1  0
 30 31  1  0
 31 32  1  0
  7  2  1  0
 25 11  1  0
 23 16  1  0
 31 27  1  0
M  END
>  <pIC50>  (561) 
4.52

>  <ChEMBL_ID>  (561) 
CHEMBL2312652

>  <document_journal>  (561) 
Bioorg. Med. Chem. Lett.

>  <bao_endpoint>  (561) 
BAO_0000190

>  <potential_duplicate>  (561) 
False

>  <uo_units>  (561) 
UO_0000065

>  <canonical_smiles>  (561) 
CN1CCC(CC1)NC(=O)c2cnc(Nc3cc(Cl)cc(Cl)c3)nc2N[C@@H]4COC[C@H]4O

>  <parent_molecule_chembl_id>  (561) 
CHEMBL2312652

>  <assay_type>  (561) 
B

>  <src_id>  (561) 
1

>  <ligand_efficiency>  (561) 
{u'le': u'0.19', u'bei': u'9.4', u'sei': u'4.05', u'lle': u'2.2'}

>  <standard_flag>  (561) 
True

>  <molecule_chembl_id>  (561) 
CHEMBL2312652

>  <target_organism>  (561) 
Homo sapiens

>  <standard_units>  (561) 
nM

>  <record_id>  (561) 
1842313

>  <document_chembl_id>  (561) 
CHEMBL2311250

>  <bao_format>  (561) 
BAO_0000357

>  <data_validity_description>  (561) 
None

>  <activity_id>  (561) 
12631763

>  <standard_type>  (561) 
IC50

>  <target_chembl_id>  (561) 
CHEMBL1862

>  <data_validity_comment>  (561) 
None

>  <published_value>  (561) 
30

>  <document_year>  (561) 
2013

>  <target_pref_name>  (561) 
Tyrosine-protein kinase ABL

>  <assay_chembl_id>  (561) 
CHEMBL2317788

>  <standard_relation>  (561) 
=

>  <assay_description>  (561) 
Inhibition of ABL (unknown origin) in presence of ATP

>  <published_relation>  (561) 
=

>  <standard_value>  (561) 
30000

>  <qudt_units>  (561) 
http://www.openphacts.org/units/Nanomolar

>  <target_tax_id>  (561) 
9606

>  <bao_label>  (561) 
single protein format

>  <published_units>  (561) 
uM

>  <pchembl_value>  (561) 
4.52

>  <published_type>  (561) 
IC50

>  <activity_comment>  (561) 
None

$$$$

     RDKit          

 35 38  0  0  0  0  0  0  0  0999 V2000
    0.0000    0.0000    0.0000 C   0  0  0  0  0  0  0  0  0  0  0  0
    0.0000    0.0000    0.0000 N   0  0  0  0  0  0  0  0  0  0  0  0
    0.0000    0.0000    0.0000 C   0  0  0  0  0  0  0  0  0  0  0  0
    0.0000    0.0000    0.0000 C   0  0  0  0  0  0  0  0  0  0  0  0
    0.0000    0.0000    0.0000 C   0  0  0  0  0  0  0  0  0  0  0  0
    0.0000    0.0000    0.0000 C   0  0  0  0  0  0  0  0  0  0  0  0
    0.0000    0.0000    0.0000 C   0  0  0  0  0  0  0  0  0  0  0  0
    0.0000    0.0000    0.0000 C   0  0  0  0  0  0  0  0  0  0  0  0
    0.0000    0.0000    0.0000 C   0  0  0  0  0  0  0  0  0  0  0  0
    0.0000    0.0000    0.0000 N   0  0  0  0  0  0  0  0  0  0  0  0
    0.0000    0.0000    0.0000 C   0  0  0  0  0  0  0  0  0  0  0  0
    0.0000    0.0000    0.0000 N   0  0  0  0  0  0  0  0  0  0  0  0
    0.0000    0.0000    0.0000 C   0  0  0  0  0  0  0  0  0  0  0  0
    0.0000    0.0000    0.0000 N   0  0  0  0  0  0  0  0  0  0  0  0
    0.0000    0.0000    0.0000 C   0  0  0  0  0  0  0  0  0  0  0  0
    0.0000    0.0000    0.0000 C   0  0  0  0  0  0  0  0  0  0  0  0
    0.0000    0.0000    0.0000 C   0  0  0  0  0  0  0  0  0  0  0  0
    0.0000    0.0000    0.0000 Cl  0  0  0  0  0  0  0  0  0  0  0  0
    0.0000    0.0000    0.0000 C   0  0  0  0  0  0  0  0  0  0  0  0
    0.0000    0.0000    0.0000 C   0  0  0  0  0  0  0  0  0  0  0  0
    0.0000    0.0000    0.0000 Cl  0  0  0  0  0  0  0  0  0  0  0  0
    0.0000    0.0000    0.0000 C   0  0  0  0  0  0  0  0  0  0  0  0
    0.0000    0.0000    0.0000 N   0  0  0  0  0  0  0  0  0  0  0  0
    0.0000    0.0000    0.0000 C   0  0  0  0  0  0  0  0  0  0  0  0
    0.0000    0.0000    0.0000 C   0  0  0  0  0  0  0  0  0  0  0  0
    0.0000    0.0000    0.0000 C   0  0  0  0  0  0  0  0  0  0  0  0
    0.0000    0.0000    0.0000 O   0  0  0  0  0  0  0  0  0  0  0  0
    0.0000    0.0000    0.0000 N   0  0  0  0  0  0  0  0  0  0  0  0
    0.0000    0.0000    0.0000 C   0  0  0  0  0  0  0  0  0  0  0  0
    0.0000    0.0000    0.0000 C   0  0  0  0  0  0  0  0  0  0  0  0
    0.0000    0.0000    0.0000 C   0  0  0  0  0  0  0  0  0  0  0  0
    0.0000    0.0000    0.0000 N   0  0  0  0  0  0  0  0  0  0  0  0
    0.0000    0.0000    0.0000 C   0  0  0  0  0  0  0  0  0  0  0  0
    0.0000    0.0000    0.0000 C   0  0  0  0  0  0  0  0  0  0  0  0
    0.0000    0.0000    0.0000 C   0  0  0  0  0  0  0  0  0  0  0  0
  1  2  1  0
  2  3  1  0
  2  4  1  0
  4  5  1  0
  5  6  1  0
  6  7  1  0
  7  8  1  0
  8  9  1  0
  7 10  1  0
 10 11  1  0
 11 12  2  0
 12 13  1  0
 13 14  1  0
 14 15  1  0
 15 16  2  0
 16 17  1  0
 17 18  1  0
 17 19  2  0
 19 20  1  0
 20 21  1  0
 20 22  2  0
 13 23  2  0
 23 24  1  0
 24 25  2  0
 25 26  1  0
 26 27  2  0
 26 28  1  0
 28 29  1  0
 29 30  1  0
 30 31  1  0
 31 32  1  0
 32 33  1  0
 32 34  1  0
 34 35  1  0
  9  4  1  0
 25 11  1  0
 22 15  1  0
 35 29  1  0
M  END
>  <pIC50>  (562) 
5.12

>  <ChEMBL_ID>  (562) 
CHEMBL2312649

>  <document_journal>  (562) 
Bioorg. Med. Chem. Lett.

>  <bao_endpoint>  (562) 
BAO_0000190

>  <potential_duplicate>  (562) 
False

>  <uo_units>  (562) 
UO_0000065

>  <canonical_smiles>  (562) 
CN(C)C1CCC(CC1)Nc2nc(Nc3cc(Cl)cc(Cl)c3)ncc2C(=O)NC4CCN(C)CC4

>  <parent_molecule_chembl_id>  (562) 
CHEMBL2312649

>  <assay_type>  (562) 
B

>  <src_id>  (562) 
1

>  <ligand_efficiency>  (562) 
{u'le': u'0.2', u'bei': u'9.83', u'sei': u'5.99', u'lle': u'0.7'}

>  <standard_flag>  (562) 
True

>  <molecule_chembl_id>  (562) 
CHEMBL2312649

>  <target_organism>  (562) 
Homo sapiens

>  <standard_units>  (562) 
nM

>  <record_id>  (562) 
1842309

>  <document_chembl_id>  (562) 
CHEMBL2311250

>  <bao_format>  (562) 
BAO_0000357

>  <data_validity_description>  (562) 
None

>  <activity_id>  (562) 
12631764

>  <standard_type>  (562) 
IC50

>  <target_chembl_id>  (562) 
CHEMBL1862

>  <data_validity_comment>  (562) 
None

>  <published_value>  (562) 
7.61

>  <document_year>  (562) 
2013

>  <target_pref_name>  (562) 
Tyrosine-protein kinase ABL

>  <assay_chembl_id>  (562) 
CHEMBL2317788

>  <standard_relation>  (562) 
=

>  <assay_description>  (562) 
Inhibition of ABL (unknown origin) in presence of ATP

>  <published_relation>  (562) 
=

>  <standard_value>  (562) 
7610

>  <qudt_units>  (562) 
http://www.openphacts.org/units/Nanomolar

>  <target_tax_id>  (562) 
9606

>  <bao_label>  (562) 
single protein format

>  <published_units>  (562) 
uM

>  <pchembl_value>  (562) 
5.12

>  <published_type>  (562) 
IC50

>  <activity_comment>  (562) 
None

$$$$

     RDKit          

 32 35  0  0  0  0  0  0  0  0999 V2000
    0.0000    0.0000    0.0000 C   0  0  0  0  0  0  0  0  0  0  0  0
    0.0000    0.0000    0.0000 N   0  0  0  0  0  0  0  0  0  0  0  0
    0.0000    0.0000    0.0000 C   0  0  0  0  0  0  0  0  0  0  0  0
    0.0000    0.0000    0.0000 C   0  0  0  0  0  0  0  0  0  0  0  0
    0.0000    0.0000    0.0000 C   0  0  0  0  0  0  0  0  0  0  0  0
    0.0000    0.0000    0.0000 C   0  0  0  0  0  0  0  0  0  0  0  0
    0.0000    0.0000    0.0000 C   0  0  0  0  0  0  0  0  0  0  0  0
    0.0000    0.0000    0.0000 N   0  0  0  0  0  0  0  0  0  0  0  0
    0.0000    0.0000    0.0000 C   0  0  0  0  0  0  0  0  0  0  0  0
    0.0000    0.0000    0.0000 O   0  0  0  0  0  0  0  0  0  0  0  0
    0.0000    0.0000    0.0000 C   0  0  0  0  0  0  0  0  0  0  0  0
    0.0000    0.0000    0.0000 C   0  0  0  0  0  0  0  0  0  0  0  0
    0.0000    0.0000    0.0000 N   0  0  0  0  0  0  0  0  0  0  0  0
    0.0000    0.0000    0.0000 C   0  0  0  0  0  0  0  0  0  0  0  0
    0.0000    0.0000    0.0000 N   0  0  0  0  0  0  0  0  0  0  0  0
    0.0000    0.0000    0.0000 C   0  0  0  0  0  0  0  0  0  0  0  0
    0.0000    0.0000    0.0000 C   0  0  0  0  0  0  0  0  0  0  0  0
    0.0000    0.0000    0.0000 C   0  0  0  0  0  0  0  0  0  0  0  0
    0.0000    0.0000    0.0000 C   0  0  0  0  0  0  0  0  0  0  0  0
    0.0000    0.0000    0.0000 Cl  0  0  0  0  0  0  0  0  0  0  0  0
    0.0000    0.0000    0.0000 C   0  0  0  0  0  0  0  0  0  0  0  0
    0.0000    0.0000    0.0000 C   0  0  0  0  0  0  0  0  0  0  0  0
    0.0000    0.0000    0.0000 C   0  0  0  0  0  0  0  0  0  0  0  0
    0.0000    0.0000    0.0000 Cl  0  0  0  0  0  0  0  0  0  0  0  0
    0.0000    0.0000    0.0000 N   0  0  0  0  0  0  0  0  0  0  0  0
    0.0000    0.0000    0.0000 C   0  0  0  0  0  0  0  0  0  0  0  0
    0.0000    0.0000    0.0000 N   0  0  0  0  0  0  0  0  0  0  0  0
    0.0000    0.0000    0.0000 C   0  0  0  0  0  0  0  0  0  0  0  0
    0.0000    0.0000    0.0000 C   0  0  0  0  0  0  0  0  0  0  0  0
    0.0000    0.0000    0.0000 C   0  0  0  0  0  0  0  0  0  0  0  0
    0.0000    0.0000    0.0000 C   0  0  0  0  0  0  0  0  0  0  0  0
    0.0000    0.0000    0.0000 C   0  0  0  0  0  0  0  0  0  0  0  0
  1  2  1  0
  2  3  1  0
  3  4  1  0
  4  5  1  0
  5  6  1  0
  6  7  1  0
  5  8  1  0
  8  9  1  0
  9 10  2  0
  9 11  1  0
 11 12  2  0
 12 13  1  0
 13 14  2  0
 14 15  1  0
 15 16  1  0
 16 17  1  0
 17 18  2  0
 18 19  1  0
 19 20  1  0
 19 21  2  0
 21 22  1  0
 22 23  2  0
 23 24  1  0
 14 25  1  0
 25 26  2  0
 26 27  1  0
 27 28  1  0
 28 29  1  0
 29 30  1  0
 30 31  1  0
 31 32  1  0
  7  2  1  0
 26 11  1  0
 23 17  1  0
 32 28  1  0
M  END
>  <pIC50>  (563) 
5.5

>  <ChEMBL_ID>  (563) 
CHEMBL2312646

>  <document_journal>  (563) 
Bioorg. Med. Chem. Lett.

>  <bao_endpoint>  (563) 
BAO_0000190

>  <potential_duplicate>  (563) 
False

>  <uo_units>  (563) 
UO_0000065

>  <canonical_smiles>  (563) 
CN1CCC(CC1)NC(=O)c2cnc(NCc3cc(Cl)ccc3Cl)nc2NC4CCCC4

>  <parent_molecule_chembl_id>  (563) 
CHEMBL2312646

>  <assay_type>  (563) 
B

>  <src_id>  (563) 
1

>  <ligand_efficiency>  (563) 
{u'le': u'0.23', u'bei': u'11.52', u'sei': u'6.69', u'lle': u'1.14'}

>  <standard_flag>  (563) 
True

>  <molecule_chembl_id>  (563) 
CHEMBL2312646

>  <target_organism>  (563) 
Homo sapiens

>  <standard_units>  (563) 
nM

>  <record_id>  (563) 
1842306

>  <document_chembl_id>  (563) 
CHEMBL2311250

>  <bao_format>  (563) 
BAO_0000357

>  <data_validity_description>  (563) 
None

>  <activity_id>  (563) 
12631765

>  <standard_type>  (563) 
IC50

>  <target_chembl_id>  (563) 
CHEMBL1862

>  <data_validity_comment>  (563) 
None

>  <published_value>  (563) 
3.17

>  <document_year>  (563) 
2013

>  <target_pref_name>  (563) 
Tyrosine-protein kinase ABL

>  <assay_chembl_id>  (563) 
CHEMBL2317788

>  <standard_relation>  (563) 
=

>  <assay_description>  (563) 
Inhibition of ABL (unknown origin) in presence of ATP

>  <published_relation>  (563) 
=

>  <standard_value>  (563) 
3170

>  <qudt_units>  (563) 
http://www.openphacts.org/units/Nanomolar

>  <target_tax_id>  (563) 
9606

>  <bao_label>  (563) 
single protein format

>  <published_units>  (563) 
uM

>  <pchembl_value>  (563) 
5.5

>  <published_type>  (563) 
IC50

>  <activity_comment>  (563) 
None

$$$$

     RDKit          

 32 35  0  0  0  0  0  0  0  0999 V2000
    0.0000    0.0000    0.0000 C   0  0  0  0  0  0  0  0  0  0  0  0
    0.0000    0.0000    0.0000 O   0  0  0  0  0  0  0  0  0  0  0  0
    0.0000    0.0000    0.0000 C   0  0  0  0  0  0  0  0  0  0  0  0
    0.0000    0.0000    0.0000 C   0  0  0  0  0  0  0  0  0  0  0  0
    0.0000    0.0000    0.0000 C   0  0  0  0  0  0  0  0  0  0  0  0
    0.0000    0.0000    0.0000 C   0  0  0  0  0  0  0  0  0  0  0  0
    0.0000    0.0000    0.0000 C   0  0  0  0  0  0  0  0  0  0  0  0
    0.0000    0.0000    0.0000 C   0  0  0  0  0  0  0  0  0  0  0  0
    0.0000    0.0000    0.0000 C   0  0  0  0  0  0  0  0  0  0  0  0
    0.0000    0.0000    0.0000 N   0  0  0  0  0  0  0  0  0  0  0  0
    0.0000    0.0000    0.0000 C   0  0  0  0  0  0  0  0  0  0  0  0
    0.0000    0.0000    0.0000 N   0  0  0  0  0  0  0  0  0  0  0  0
    0.0000    0.0000    0.0000 C   0  0  0  0  0  0  0  0  0  0  0  0
    0.0000    0.0000    0.0000 C   0  0  0  0  0  0  0  0  0  0  0  0
    0.0000    0.0000    0.0000 C   0  0  0  0  0  0  0  0  0  0  0  0
    0.0000    0.0000    0.0000 O   0  0  0  0  0  0  0  0  0  0  0  0
    0.0000    0.0000    0.0000 N   0  0  0  0  0  0  0  0  0  0  0  0
    0.0000    0.0000    0.0000 C   0  0  0  0  0  0  0  0  0  0  0  0
    0.0000    0.0000    0.0000 C   0  0  0  0  0  0  0  0  0  0  0  0
    0.0000    0.0000    0.0000 C   0  0  0  0  0  0  0  0  0  0  0  0
    0.0000    0.0000    0.0000 N   0  0  0  0  0  0  0  0  0  0  0  0
    0.0000    0.0000    0.0000 C   0  0  0  0  0  0  0  0  0  0  0  0
    0.0000    0.0000    0.0000 C   0  0  0  0  0  0  0  0  0  0  0  0
    0.0000    0.0000    0.0000 C   0  0  0  0  0  0  0  0  0  0  0  0
    0.0000    0.0000    0.0000 C   0  0  0  0  0  0  0  0  0  0  0  0
    0.0000    0.0000    0.0000 N   0  0  0  0  0  0  0  0  0  0  0  0
    0.0000    0.0000    0.0000 C   0  0  0  0  0  0  0  0  0  0  0  0
    0.0000    0.0000    0.0000 C   0  0  0  0  0  0  0  0  0  0  0  0
    0.0000    0.0000    0.0000 C   0  0  0  0  0  0  0  0  0  0  0  0
    0.0000    0.0000    0.0000 C   0  0  0  0  0  0  0  0  0  0  0  0
    0.0000    0.0000    0.0000 C   0  0  0  0  0  0  0  0  0  0  0  0
    0.0000    0.0000    0.0000 N   0  0  0  0  0  0  0  0  0  0  0  0
  1  2  1  0
  2  3  1  0
  3  4  2  0
  4  5  1  0
  5  6  2  0
  6  7  1  0
  7  8  2  0
  8  9  1  0
  9 10  1  0
 10 11  1  0
 11 12  2  0
 12 13  1  0
 13 14  2  0
 14 15  1  0
 15 16  2  0
 15 17  1  0
 17 18  1  0
 18 19  1  0
 19 20  1  0
 20 21  1  0
 21 22  1  0
 21 23  1  0
 23 24  1  0
 14 25  1  0
 25 26  1  0
 26 27  1  0
 27 28  1  0
 28 29  1  0
 29 30  1  0
 30 31  1  0
 25 32  2  0
  8  3  1  0
 32 11  1  0
 24 18  1  0
 31 27  1  0
M  END
>  <pIC50>  (564) 
4.68

>  <ChEMBL_ID>  (564) 
CHEMBL2312645

>  <document_journal>  (564) 
Bioorg. Med. Chem. Lett.

>  <bao_endpoint>  (564) 
BAO_0000190

>  <potential_duplicate>  (564) 
False

>  <uo_units>  (564) 
UO_0000065

>  <canonical_smiles>  (564) 
COc1ccccc1CNc2ncc(C(=O)NC3CCN(C)CC3)c(NC4CCCC4)n2

>  <parent_molecule_chembl_id>  (564) 
CHEMBL2312645

>  <assay_type>  (564) 
B

>  <src_id>  (564) 
1

>  <ligand_efficiency>  (564) 
{u'le': u'0.2', u'bei': u'10.66', u'sei': u'5.11', u'lle': u'1.66'}

>  <standard_flag>  (564) 
True

>  <molecule_chembl_id>  (564) 
CHEMBL2312645

>  <target_organism>  (564) 
Homo sapiens

>  <standard_units>  (564) 
nM

>  <record_id>  (564) 
1842305

>  <document_chembl_id>  (564) 
CHEMBL2311250

>  <bao_format>  (564) 
BAO_0000357

>  <data_validity_description>  (564) 
None

>  <activity_id>  (564) 
12631766

>  <standard_type>  (564) 
IC50

>  <target_chembl_id>  (564) 
CHEMBL1862

>  <data_validity_comment>  (564) 
None

>  <published_value>  (564) 
21.11

>  <document_year>  (564) 
2013

>  <target_pref_name>  (564) 
Tyrosine-protein kinase ABL

>  <assay_chembl_id>  (564) 
CHEMBL2317788

>  <standard_relation>  (564) 
=

>  <assay_description>  (564) 
Inhibition of ABL (unknown origin) in presence of ATP

>  <published_relation>  (564) 
=

>  <standard_value>  (564) 
21110

>  <qudt_units>  (564) 
http://www.openphacts.org/units/Nanomolar

>  <target_tax_id>  (564) 
9606

>  <bao_label>  (564) 
single protein format

>  <published_units>  (564) 
uM

>  <pchembl_value>  (564) 
4.68

>  <published_type>  (564) 
IC50

>  <activity_comment>  (564) 
None

$$$$

     RDKit          

 34 37  0  0  0  0  0  0  0  0999 V2000
    0.0000    0.0000    0.0000 C   0  0  0  0  0  0  0  0  0  0  0  0
    0.0000    0.0000    0.0000 C   0  0  0  0  0  0  0  0  0  0  0  0
    0.0000    0.0000    0.0000 C   0  0  0  0  0  0  0  0  0  0  0  0
    0.0000    0.0000    0.0000 C   0  0  0  0  0  0  0  0  0  0  0  0
    0.0000    0.0000    0.0000 C   0  0  0  0  0  0  0  0  0  0  0  0
    0.0000    0.0000    0.0000 N   0  0  0  0  0  0  0  0  0  0  0  0
    0.0000    0.0000    0.0000 C   0  0  0  0  0  0  0  0  0  0  0  0
    0.0000    0.0000    0.0000 O   0  0  0  0  0  0  0  0  0  0  0  0
    0.0000    0.0000    0.0000 C   0  0  0  0  0  0  0  0  0  0  0  0
    0.0000    0.0000    0.0000 C   0  0  0  0  0  0  0  0  0  0  0  0
    0.0000    0.0000    0.0000 C   0  0  0  0  0  0  0  0  0  0  0  0
    0.0000    0.0000    0.0000 C   0  0  0  0  0  0  0  0  0  0  0  0
    0.0000    0.0000    0.0000 C   0  0  0  0  0  0  0  0  0  0  0  0
    0.0000    0.0000    0.0000 N   0  0  0  0  0  0  0  0  0  0  0  0
    0.0000    0.0000    0.0000 C   0  0  0  0  0  0  0  0  0  0  0  0
    0.0000    0.0000    0.0000 C   0  0  0  0  0  0  0  0  0  0  0  0
    0.0000    0.0000    0.0000 N   0  0  0  0  0  0  0  0  0  0  0  0
    0.0000    0.0000    0.0000 C   0  0  0  0  0  0  0  0  0  0  0  0
    0.0000    0.0000    0.0000 C   0  0  0  0  0  0  0  0  0  0  0  0
    0.0000    0.0000    0.0000 C   0  0  0  0  0  0  0  0  0  0  0  0
    0.0000    0.0000    0.0000 C   0  0  0  0  0  0  0  0  0  0  0  0
    0.0000    0.0000    0.0000 F   0  0  0  0  0  0  0  0  0  0  0  0
    0.0000    0.0000    0.0000 F   0  0  0  0  0  0  0  0  0  0  0  0
    0.0000    0.0000    0.0000 F   0  0  0  0  0  0  0  0  0  0  0  0
    0.0000    0.0000    0.0000 C   0  0  0  0  0  0  0  0  0  0  0  0
    0.0000    0.0000    0.0000 C   0  0  0  0  0  0  0  0  0  0  0  0
    0.0000    0.0000    0.0000 C   0  0  0  0  0  0  0  0  0  0  0  0
    0.0000    0.0000    0.0000 C   0  0  0  0  0  0  0  0  0  0  0  0
    0.0000    0.0000    0.0000 C   0  0  0  0  0  0  0  0  0  0  0  0
    0.0000    0.0000    0.0000 C   0  0  0  0  0  0  0  0  0  0  0  0
    0.0000    0.0000    0.0000 N   0  0  0  0  0  0  0  0  0  0  0  0
    0.0000    0.0000    0.0000 C   0  0  0  0  0  0  0  0  0  0  0  0
    0.0000    0.0000    0.0000 N   0  0  0  0  0  0  0  0  0  0  0  0
    0.0000    0.0000    0.0000 C   0  0  0  0  0  0  0  0  0  0  0  0
  1  2  1  0
  2  3  2  0
  3  4  1  0
  4  5  2  0
  5  6  1  0
  6  7  1  0
  7  8  2  0
  7  9  1  0
  9 10  2  0
 10 11  1  0
 11 12  2  0
 12 13  1  0
 13 14  1  0
 14 15  1  0
 15 16  2  0
 16 17  1  0
 17 18  2  0
 12 19  1  0
 19 20  2  0
 19 21  1  0
 21 22  1  0
 21 23  1  0
 21 24  1  0
  5 25  1  0
 25 26  2  0
 26 27  1  0
 27 28  3  0
 28 29  1  0
 29 30  2  0
 30 31  1  0
 31 32  2  0
 32 33  1  0
 33 34  2  0
 26  2  1  0
 20  9  1  0
 18 14  1  0
 34 29  1  0
M  END
>  <pIC50>  (565) 
7.02

>  <ChEMBL_ID>  (565) 
CHEMBL2324932

>  <document_journal>  (565) 
J. Med. Chem.

>  <bao_endpoint>  (565) 
BAO_0000190

>  <potential_duplicate>  (565) 
False

>  <uo_units>  (565) 
UO_0000065

>  <canonical_smiles>  (565) 
Cc1ccc(NC(=O)c2ccc(Cn3ccnc3)c(c2)C(F)(F)F)cc1C#Cc4cncnc4

>  <parent_molecule_chembl_id>  (565) 
CHEMBL2324932

>  <assay_type>  (565) 
B

>  <src_id>  (565) 
1

>  <ligand_efficiency>  (565) 
{u'le': u'0.3', u'bei': u'16.03', u'sei': u'10.18', u'lle': u'3.35'}

>  <standard_flag>  (565) 
True

>  <molecule_chembl_id>  (565) 
CHEMBL2324932

>  <target_organism>  (565) 
Homo sapiens

>  <standard_units>  (565) 
nM

>  <record_id>  (565) 
1851152

>  <document_chembl_id>  (565) 
CHEMBL2321864

>  <bao_format>  (565) 
BAO_0000357

>  <data_validity_description>  (565) 
None

>  <activity_id>  (565) 
12657838

>  <standard_type>  (565) 
IC50

>  <target_chembl_id>  (565) 
CHEMBL1862

>  <data_validity_comment>  (565) 
None

>  <published_value>  (565) 
40

>  <document_year>  (565) 
2013

>  <target_pref_name>  (565) 
Tyrosine-protein kinase ABL

>  <assay_chembl_id>  (565) 
CHEMBL2330093

>  <standard_relation>  (565) 
=

>  <assay_description>  (565) 
Inhibition of Abl1 kinase (unknown origin) using Tyr 6 peptide as substrate assessed as residual enzyme activity after every 10 secs measured for 10 mins

>  <published_relation>  (565) 
=

>  <standard_value>  (565) 
40

>  <qudt_units>  (565) 
http://www.openphacts.org/units/Nanomolar

>  <target_tax_id>  (565) 
9606

>  <bao_label>  (565) 
single protein format

>  <published_units>  (565) 
nM

>  <pchembl_value>  (565) 
7.4

>  <published_type>  (565) 
IC50

>  <activity_comment>  (565) 
None

$$$$

     RDKit          

 41 45  0  0  0  0  0  0  0  0999 V2000
    0.0000    0.0000    0.0000 C   0  0  0  0  0  0  0  0  0  0  0  0
    0.0000    0.0000    0.0000 C   0  0  0  0  0  0  0  0  0  0  0  0
    0.0000    0.0000    0.0000 C   0  0  0  0  0  0  0  0  0  0  0  0
    0.0000    0.0000    0.0000 C   0  0  0  0  0  0  0  0  0  0  0  0
    0.0000    0.0000    0.0000 C   0  0  0  0  0  0  0  0  0  0  0  0
    0.0000    0.0000    0.0000 N   0  0  0  0  0  0  0  0  0  0  0  0
    0.0000    0.0000    0.0000 C   0  0  0  0  0  0  0  0  0  0  0  0
    0.0000    0.0000    0.0000 O   0  0  0  0  0  0  0  0  0  0  0  0
    0.0000    0.0000    0.0000 C   0  0  0  0  0  0  0  0  0  0  0  0
    0.0000    0.0000    0.0000 C   0  0  0  0  0  0  0  0  0  0  0  0
    0.0000    0.0000    0.0000 C   0  0  0  0  0  0  0  0  0  0  0  0
    0.0000    0.0000    0.0000 C   0  0  0  0  0  0  0  0  0  0  0  0
    0.0000    0.0000    0.0000 C   0  0  0  0  0  0  0  0  0  0  0  0
    0.0000    0.0000    0.0000 N   0  0  0  0  0  0  0  0  0  0  0  0
    0.0000    0.0000    0.0000 C   0  0  0  0  0  0  0  0  0  0  0  0
    0.0000    0.0000    0.0000 C   0  0  0  0  0  0  0  0  0  0  0  0
    0.0000    0.0000    0.0000 N   0  0  0  0  0  0  0  0  0  0  0  0
    0.0000    0.0000    0.0000 C   0  0  0  0  0  0  0  0  0  0  0  0
    0.0000    0.0000    0.0000 C   0  0  0  0  0  0  0  0  0  0  0  0
    0.0000    0.0000    0.0000 O   0  0  0  0  0  0  0  0  0  0  0  0
    0.0000    0.0000    0.0000 C   0  0  0  0  0  0  0  0  0  0  0  0
    0.0000    0.0000    0.0000 C   0  0  0  0  0  0  0  0  0  0  0  0
    0.0000    0.0000    0.0000 C   0  0  0  0  0  0  0  0  0  0  0  0
    0.0000    0.0000    0.0000 C   0  0  0  0  0  0  0  0  0  0  0  0
    0.0000    0.0000    0.0000 C   0  0  0  0  0  0  0  0  0  0  0  0
    0.0000    0.0000    0.0000 F   0  0  0  0  0  0  0  0  0  0  0  0
    0.0000    0.0000    0.0000 F   0  0  0  0  0  0  0  0  0  0  0  0
    0.0000    0.0000    0.0000 F   0  0  0  0  0  0  0  0  0  0  0  0
    0.0000    0.0000    0.0000 C   0  0  0  0  0  0  0  0  0  0  0  0
    0.0000    0.0000    0.0000 C   0  0  0  0  0  0  0  0  0  0  0  0
    0.0000    0.0000    0.0000 C   0  0  0  0  0  0  0  0  0  0  0  0
    0.0000    0.0000    0.0000 C   0  0  0  0  0  0  0  0  0  0  0  0
    0.0000    0.0000    0.0000 C   0  0  0  0  0  0  0  0  0  0  0  0
    0.0000    0.0000    0.0000 C   0  0  0  0  0  0  0  0  0  0  0  0
    0.0000    0.0000    0.0000 N   0  0  0  0  0  0  0  0  0  0  0  0
    0.0000    0.0000    0.0000 C   0  0  0  0  0  0  0  0  0  0  0  0
    0.0000    0.0000    0.0000 C   0  0  0  0  0  0  0  0  0  0  0  0
    0.0000    0.0000    0.0000 C   0  0  0  0  0  0  0  0  0  0  0  0
    0.0000    0.0000    0.0000 C   0  0  0  0  0  0  0  0  0  0  0  0
    0.0000    0.0000    0.0000 C   0  0  0  0  0  0  0  0  0  0  0  0
    0.0000    0.0000    0.0000 N   0  0  0  0  0  0  0  0  0  0  0  0
  1  2  1  0
  2  3  2  0
  3  4  1  0
  4  5  2  0
  5  6  1  0
  6  7  1  0
  7  8  2  0
  7  9  1  0
  9 10  2  0
 10 11  1  0
 11 12  2  0
 12 13  1  0
 13 14  1  0
 14 15  1  0
 15 16  1  0
 16 17  1  0
 17 18  1  0
 18 19  1  0
 19 20  1  0
 17 21  1  0
 21 22  1  0
 12 23  1  0
 23 24  2  0
 23 25  1  0
 25 26  1  0
 25 27  1  0
 25 28  1  0
  5 29  1  0
 29 30  2  0
 30 31  1  0
 31 32  3  0
 32 33  1  0
 33 34  2  0
 34 35  1  0
 35 36  2  0
 36 37  1  0
 37 38  2  0
 38 39  1  0
 39 40  2  0
 40 41  1  0
 30  2  1  0
 24  9  1  0
 22 14  1  0
 41 33  1  0
 41 36  1  0
M  END
>  <pIC50>  (566) 
7.73

>  <ChEMBL_ID>  (566) 
CHEMBL2324931

>  <document_journal>  (566) 
J. Med. Chem.

>  <bao_endpoint>  (566) 
BAO_0000190

>  <potential_duplicate>  (566) 
False

>  <uo_units>  (566) 
UO_0000065

>  <canonical_smiles>  (566) 
Cc1ccc(NC(=O)c2ccc(CN3CCN(CCO)CC3)c(c2)C(F)(F)F)cc1C#Cc4cnc5ccccn45

>  <parent_molecule_chembl_id>  (566) 
CHEMBL2324931

>  <assay_type>  (566) 
B

>  <src_id>  (566) 
1

>  <ligand_efficiency>  (566) 
{u'le': u'0.26', u'bei': u'14.04', u'sei': u'10.79', u'lle': u'3.08'}

>  <standard_flag>  (566) 
True

>  <molecule_chembl_id>  (566) 
CHEMBL2324931

>  <target_organism>  (566) 
Homo sapiens

>  <standard_units>  (566) 
nM

>  <record_id>  (566) 
1851151

>  <document_chembl_id>  (566) 
CHEMBL2321864

>  <bao_format>  (566) 
BAO_0000357

>  <data_validity_description>  (566) 
None

>  <activity_id>  (566) 
12657842

>  <standard_type>  (566) 
IC50

>  <target_chembl_id>  (566) 
CHEMBL1862

>  <data_validity_comment>  (566) 
None

>  <published_value>  (566) 
13

>  <document_year>  (566) 
2013

>  <target_pref_name>  (566) 
Tyrosine-protein kinase ABL

>  <assay_chembl_id>  (566) 
CHEMBL2330093

>  <standard_relation>  (566) 
=

>  <assay_description>  (566) 
Inhibition of Abl1 kinase (unknown origin) using Tyr 6 peptide as substrate assessed as residual enzyme activity after every 10 secs measured for 10 mins

>  <published_relation>  (566) 
=

>  <standard_value>  (566) 
13

>  <qudt_units>  (566) 
http://www.openphacts.org/units/Nanomolar

>  <target_tax_id>  (566) 
9606

>  <bao_label>  (566) 
single protein format

>  <published_units>  (566) 
nM

>  <pchembl_value>  (566) 
7.89

>  <published_type>  (566) 
IC50

>  <activity_comment>  (566) 
None

$$$$

     RDKit          

 39 43  0  0  0  0  0  0  0  0999 V2000
    0.0000    0.0000    0.0000 C   0  0  0  0  0  0  0  0  0  0  0  0
    0.0000    0.0000    0.0000 N   0  0  0  0  0  0  0  0  0  0  0  0
    0.0000    0.0000    0.0000 C   0  0  0  0  0  0  0  0  0  0  0  0
    0.0000    0.0000    0.0000 C   0  0  0  0  0  0  0  0  0  0  0  0
    0.0000    0.0000    0.0000 N   0  0  0  0  0  0  0  0  0  0  0  0
    0.0000    0.0000    0.0000 C   0  0  0  0  0  0  0  0  0  0  0  0
    0.0000    0.0000    0.0000 C   0  0  0  0  0  0  0  0  0  0  0  0
    0.0000    0.0000    0.0000 C   0  0  0  0  0  0  0  0  0  0  0  0
    0.0000    0.0000    0.0000 C   0  0  0  0  0  0  0  0  0  0  0  0
    0.0000    0.0000    0.0000 C   0  0  0  0  0  0  0  0  0  0  0  0
    0.0000    0.0000    0.0000 C   0  0  0  0  0  0  0  0  0  0  0  0
    0.0000    0.0000    0.0000 C   0  0  0  0  0  0  0  0  0  0  0  0
    0.0000    0.0000    0.0000 C   0  0  0  0  0  0  0  0  0  0  0  0
    0.0000    0.0000    0.0000 F   0  0  0  0  0  0  0  0  0  0  0  0
    0.0000    0.0000    0.0000 F   0  0  0  0  0  0  0  0  0  0  0  0
    0.0000    0.0000    0.0000 F   0  0  0  0  0  0  0  0  0  0  0  0
    0.0000    0.0000    0.0000 C   0  0  0  0  0  0  0  0  0  0  0  0
    0.0000    0.0000    0.0000 O   0  0  0  0  0  0  0  0  0  0  0  0
    0.0000    0.0000    0.0000 N   0  0  0  0  0  0  0  0  0  0  0  0
    0.0000    0.0000    0.0000 C   0  0  0  0  0  0  0  0  0  0  0  0
    0.0000    0.0000    0.0000 C   0  0  0  0  0  0  0  0  0  0  0  0
    0.0000    0.0000    0.0000 C   0  0  0  0  0  0  0  0  0  0  0  0
    0.0000    0.0000    0.0000 C   0  0  0  0  0  0  0  0  0  0  0  0
    0.0000    0.0000    0.0000 C   0  0  0  0  0  0  0  0  0  0  0  0
    0.0000    0.0000    0.0000 C   0  0  0  0  0  0  0  0  0  0  0  0
    0.0000    0.0000    0.0000 C   0  0  0  0  0  0  0  0  0  0  0  0
    0.0000    0.0000    0.0000 C   0  0  0  0  0  0  0  0  0  0  0  0
    0.0000    0.0000    0.0000 C   0  0  0  0  0  0  0  0  0  0  0  0
    0.0000    0.0000    0.0000 C   0  0  0  0  0  0  0  0  0  0  0  0
    0.0000    0.0000    0.0000 C   0  0  0  0  0  0  0  0  0  0  0  0
    0.0000    0.0000    0.0000 N   0  0  0  0  0  0  0  0  0  0  0  0
    0.0000    0.0000    0.0000 C   0  0  0  0  0  0  0  0  0  0  0  0
    0.0000    0.0000    0.0000 C   0  0  0  0  0  0  0  0  0  0  0  0
    0.0000    0.0000    0.0000 C   0  0  0  0  0  0  0  0  0  0  0  0
    0.0000    0.0000    0.0000 C   0  0  0  0  0  0  0  0  0  0  0  0
    0.0000    0.0000    0.0000 N   0  0  0  0  0  0  0  0  0  0  0  0
    0.0000    0.0000    0.0000 N   0  0  0  0  0  0  0  0  0  0  0  0
    0.0000    0.0000    0.0000 C   0  0  0  0  0  0  0  0  0  0  0  0
    0.0000    0.0000    0.0000 C   0  0  0  0  0  0  0  0  0  0  0  0
  1  2  1  0
  2  3  1  0
  3  4  1  0
  4  5  1  0
  5  6  1  0
  6  7  1  0
  7  8  2  0
  8  9  1  0
  9 10  2  0
 10 11  1  0
 11 12  2  0
 12 13  1  0
 13 14  1  0
 13 15  1  0
 13 16  1  0
 10 17  1  0
 17 18  2  0
 17 19  1  0
 19 20  1  0
 20 21  2  0
 21 22  1  0
 22 23  2  0
 23 24  1  0
 23 25  1  0
 25 26  2  0
 25 27  1  0
 27 28  3  0
 28 29  1  0
 29 30  2  0
 30 31  1  0
 31 32  2  0
 32 33  1  0
 33 34  2  0
 34 35  1  0
 35 36  2  0
 36 37  1  0
  5 38  1  0
 38 39  1  0
 39  2  1  0
 12  7  1  0
 26 20  1  0
 37 29  1  0
 37 32  1  0
M  END
>  <pIC50>  (567) 
7.585

>  <ChEMBL_ID>  (567) 
CHEMBL2324930

>  <document_journal>  (567) 
J. Med. Chem.

>  <bao_endpoint>  (567) 
BAO_0000190

>  <potential_duplicate>  (567) 
False

>  <uo_units>  (567) 
UO_0000065

>  <canonical_smiles>  (567) 
CN1CCN(Cc2ccc(cc2C(F)(F)F)C(=O)Nc3ccc(C)c(c3)C#Cc4cnc5cccnn45)CC1

>  <parent_molecule_chembl_id>  (567) 
CHEMBL2324930

>  <assay_type>  (567) 
B

>  <src_id>  (567) 
1

>  <ligand_efficiency>  (567) 
{u'le': u'0.27', u'bei': u'14.69', u'sei': u'11.9', u'lle': u'2.94'}

>  <standard_flag>  (567) 
True

>  <molecule_chembl_id>  (567) 
CHEMBL2324930

>  <target_organism>  (567) 
Homo sapiens

>  <standard_units>  (567) 
nM

>  <record_id>  (567) 
1851150

>  <document_chembl_id>  (567) 
CHEMBL2321864

>  <bao_format>  (567) 
BAO_0000357

>  <data_validity_description>  (567) 
None

>  <activity_id>  (567) 
12657846

>  <standard_type>  (567) 
IC50

>  <target_chembl_id>  (567) 
CHEMBL1862

>  <data_validity_comment>  (567) 
None

>  <published_value>  (567) 
15

>  <document_year>  (567) 
2013

>  <target_pref_name>  (567) 
Tyrosine-protein kinase ABL

>  <assay_chembl_id>  (567) 
CHEMBL2330093

>  <standard_relation>  (567) 
=

>  <assay_description>  (567) 
Inhibition of Abl1 kinase (unknown origin) using Tyr 6 peptide as substrate assessed as residual enzyme activity after every 10 secs measured for 10 mins

>  <published_relation>  (567) 
=

>  <standard_value>  (567) 
15

>  <qudt_units>  (567) 
http://www.openphacts.org/units/Nanomolar

>  <target_tax_id>  (567) 
9606

>  <bao_label>  (567) 
single protein format

>  <published_units>  (567) 
nM

>  <pchembl_value>  (567) 
7.82

>  <published_type>  (567) 
IC50

>  <activity_comment>  (567) 
None

$$$$

     RDKit          

 37 40  0  0  0  0  0  0  0  0999 V2000
    0.0000    0.0000    0.0000 C   0  0  0  0  0  0  0  0  0  0  0  0
    0.0000    0.0000    0.0000 N   0  0  0  0  0  0  0  0  0  0  0  0
    0.0000    0.0000    0.0000 C   0  0  0  0  0  0  0  0  0  0  0  0
    0.0000    0.0000    0.0000 C   0  0  0  0  0  0  0  0  0  0  0  0
    0.0000    0.0000    0.0000 N   0  0  0  0  0  0  0  0  0  0  0  0
    0.0000    0.0000    0.0000 C   0  0  0  0  0  0  0  0  0  0  0  0
    0.0000    0.0000    0.0000 C   0  0  0  0  0  0  0  0  0  0  0  0
    0.0000    0.0000    0.0000 C   0  0  0  0  0  0  0  0  0  0  0  0
    0.0000    0.0000    0.0000 C   0  0  0  0  0  0  0  0  0  0  0  0
    0.0000    0.0000    0.0000 C   0  0  0  0  0  0  0  0  0  0  0  0
    0.0000    0.0000    0.0000 N   0  0  0  0  0  0  0  0  0  0  0  0
    0.0000    0.0000    0.0000 C   0  0  0  0  0  0  0  0  0  0  0  0
    0.0000    0.0000    0.0000 O   0  0  0  0  0  0  0  0  0  0  0  0
    0.0000    0.0000    0.0000 N   0  0  0  0  0  0  0  0  0  0  0  0
    0.0000    0.0000    0.0000 C   0  0  0  0  0  0  0  0  0  0  0  0
    0.0000    0.0000    0.0000 C   0  0  0  0  0  0  0  0  0  0  0  0
    0.0000    0.0000    0.0000 C   0  0  0  0  0  0  0  0  0  0  0  0
    0.0000    0.0000    0.0000 C   0  0  0  0  0  0  0  0  0  0  0  0
    0.0000    0.0000    0.0000 C   0  0  0  0  0  0  0  0  0  0  0  0
    0.0000    0.0000    0.0000 C   0  0  0  0  0  0  0  0  0  0  0  0
    0.0000    0.0000    0.0000 C   0  0  0  0  0  0  0  0  0  0  0  0
    0.0000    0.0000    0.0000 C   0  0  0  0  0  0  0  0  0  0  0  0
    0.0000    0.0000    0.0000 C   0  0  0  0  0  0  0  0  0  0  0  0
    0.0000    0.0000    0.0000 N   0  0  0  0  0  0  0  0  0  0  0  0
    0.0000    0.0000    0.0000 N   0  0  0  0  0  0  0  0  0  0  0  0
    0.0000    0.0000    0.0000 C   0  0  0  0  0  0  0  0  0  0  0  0
    0.0000    0.0000    0.0000 N   0  0  0  0  0  0  0  0  0  0  0  0
    0.0000    0.0000    0.0000 C   0  0  0  0  0  0  0  0  0  0  0  0
    0.0000    0.0000    0.0000 N   0  0  0  0  0  0  0  0  0  0  0  0
    0.0000    0.0000    0.0000 C   0  0  0  0  0  0  0  0  0  0  0  0
    0.0000    0.0000    0.0000 C   0  0  0  0  0  0  0  0  0  0  0  0
    0.0000    0.0000    0.0000 C   0  0  0  0  0  0  0  0  0  0  0  0
    0.0000    0.0000    0.0000 F   0  0  0  0  0  0  0  0  0  0  0  0
    0.0000    0.0000    0.0000 F   0  0  0  0  0  0  0  0  0  0  0  0
    0.0000    0.0000    0.0000 F   0  0  0  0  0  0  0  0  0  0  0  0
    0.0000    0.0000    0.0000 C   0  0  0  0  0  0  0  0  0  0  0  0
    0.0000    0.0000    0.0000 C   0  0  0  0  0  0  0  0  0  0  0  0
  1  2  1  0
  2  3  1  0
  3  4  1  0
  4  5  1  0
  5  6  1  0
  6  7  1  0
  7  8  2  0
  8  9  1  0
  9 10  2  0
 10 11  1  0
 11 12  1  0
 12 13  2  0
 12 14  1  0
 14 15  1  0
 15 16  1  0
 16 17  2  0
 17 18  1  0
 18 19  3  0
 19 20  1  0
 20 21  2  0
 21 22  1  0
 22 23  2  0
 23 24  1  0
 23 25  1  0
 25 26  2  0
 17 27  1  0
 27 28  1  0
 27 29  1  0
 10 30  1  0
 30 31  2  0
 31 32  1  0
 32 33  1  0
 32 34  1  0
 32 35  1  0
  5 36  1  0
 36 37  1  0
 37  2  1  0
 31  7  1  0
 29 15  2  0
 26 20  1  0
M  END
>  <pIC50>  (568) 
7.52

>  <ChEMBL_ID>  (568) 
CHEMBL2324929

>  <document_journal>  (568) 
J. Med. Chem.

>  <bao_endpoint>  (568) 
BAO_0000190

>  <potential_duplicate>  (568) 
False

>  <uo_units>  (568) 
UO_0000065

>  <canonical_smiles>  (568) 
CN1CCN(Cc2ccc(NC(=O)Nc3cc(C#Cc4ccc(N)nc4)n(C)n3)cc2C(F)(F)F)CC1

>  <parent_molecule_chembl_id>  (568) 
CHEMBL2324929

>  <assay_type>  (568) 
B

>  <src_id>  (568) 
1

>  <ligand_efficiency>  (568) 
{u'le': u'0.28', u'bei': u'14.94', u'sei': u'7.34', u'lle': u'3.93'}

>  <standard_flag>  (568) 
True

>  <molecule_chembl_id>  (568) 
CHEMBL2324929

>  <target_organism>  (568) 
Homo sapiens

>  <standard_units>  (568) 
nM

>  <record_id>  (568) 
1851149

>  <document_chembl_id>  (568) 
CHEMBL2321864

>  <bao_format>  (568) 
BAO_0000357

>  <data_validity_description>  (568) 
None

>  <activity_id>  (568) 
12657850

>  <standard_type>  (568) 
IC50

>  <target_chembl_id>  (568) 
CHEMBL1862

>  <data_validity_comment>  (568) 
None

>  <published_value>  (568) 
22

>  <document_year>  (568) 
2013

>  <target_pref_name>  (568) 
Tyrosine-protein kinase ABL

>  <assay_chembl_id>  (568) 
CHEMBL2330093

>  <standard_relation>  (568) 
=

>  <assay_description>  (568) 
Inhibition of Abl1 kinase (unknown origin) using Tyr 6 peptide as substrate assessed as residual enzyme activity after every 10 secs measured for 10 mins

>  <published_relation>  (568) 
=

>  <standard_value>  (568) 
22

>  <qudt_units>  (568) 
http://www.openphacts.org/units/Nanomolar

>  <target_tax_id>  (568) 
9606

>  <bao_label>  (568) 
single protein format

>  <published_units>  (568) 
nM

>  <pchembl_value>  (568) 
7.66

>  <published_type>  (568) 
IC50

>  <activity_comment>  (568) 
None

$$$$

     RDKit          

 36 39  0  0  0  0  0  0  0  0999 V2000
    0.0000    0.0000    0.0000 C   0  0  0  0  0  0  0  0  0  0  0  0
    0.0000    0.0000    0.0000 N   0  0  0  0  0  0  0  0  0  0  0  0
    0.0000    0.0000    0.0000 C   0  0  0  0  0  0  0  0  0  0  0  0
    0.0000    0.0000    0.0000 C   0  0  0  0  0  0  0  0  0  0  0  0
    0.0000    0.0000    0.0000 N   0  0  0  0  0  0  0  0  0  0  0  0
    0.0000    0.0000    0.0000 C   0  0  0  0  0  0  0  0  0  0  0  0
    0.0000    0.0000    0.0000 C   0  0  0  0  0  0  0  0  0  0  0  0
    0.0000    0.0000    0.0000 C   0  0  0  0  0  0  0  0  0  0  0  0
    0.0000    0.0000    0.0000 C   0  0  0  0  0  0  0  0  0  0  0  0
    0.0000    0.0000    0.0000 C   0  0  0  0  0  0  0  0  0  0  0  0
    0.0000    0.0000    0.0000 N   0  0  0  0  0  0  0  0  0  0  0  0
    0.0000    0.0000    0.0000 C   0  0  0  0  0  0  0  0  0  0  0  0
    0.0000    0.0000    0.0000 O   0  0  0  0  0  0  0  0  0  0  0  0
    0.0000    0.0000    0.0000 N   0  0  0  0  0  0  0  0  0  0  0  0
    0.0000    0.0000    0.0000 C   0  0  0  0  0  0  0  0  0  0  0  0
    0.0000    0.0000    0.0000 C   0  0  0  0  0  0  0  0  0  0  0  0
    0.0000    0.0000    0.0000 C   0  0  0  0  0  0  0  0  0  0  0  0
    0.0000    0.0000    0.0000 C   0  0  0  0  0  0  0  0  0  0  0  0
    0.0000    0.0000    0.0000 C   0  0  0  0  0  0  0  0  0  0  0  0
    0.0000    0.0000    0.0000 C   0  0  0  0  0  0  0  0  0  0  0  0
    0.0000    0.0000    0.0000 C   0  0  0  0  0  0  0  0  0  0  0  0
    0.0000    0.0000    0.0000 C   0  0  0  0  0  0  0  0  0  0  0  0
    0.0000    0.0000    0.0000 C   0  0  0  0  0  0  0  0  0  0  0  0
    0.0000    0.0000    0.0000 N   0  0  0  0  0  0  0  0  0  0  0  0
    0.0000    0.0000    0.0000 C   0  0  0  0  0  0  0  0  0  0  0  0
    0.0000    0.0000    0.0000 N   0  0  0  0  0  0  0  0  0  0  0  0
    0.0000    0.0000    0.0000 C   0  0  0  0  0  0  0  0  0  0  0  0
    0.0000    0.0000    0.0000 N   0  0  0  0  0  0  0  0  0  0  0  0
    0.0000    0.0000    0.0000 C   0  0  0  0  0  0  0  0  0  0  0  0
    0.0000    0.0000    0.0000 C   0  0  0  0  0  0  0  0  0  0  0  0
    0.0000    0.0000    0.0000 C   0  0  0  0  0  0  0  0  0  0  0  0
    0.0000    0.0000    0.0000 F   0  0  0  0  0  0  0  0  0  0  0  0
    0.0000    0.0000    0.0000 F   0  0  0  0  0  0  0  0  0  0  0  0
    0.0000    0.0000    0.0000 F   0  0  0  0  0  0  0  0  0  0  0  0
    0.0000    0.0000    0.0000 C   0  0  0  0  0  0  0  0  0  0  0  0
    0.0000    0.0000    0.0000 C   0  0  0  0  0  0  0  0  0  0  0  0
  1  2  1  0
  2  3  1  0
  3  4  1  0
  4  5  1  0
  5  6  1  0
  6  7  1  0
  7  8  2  0
  8  9  1  0
  9 10  2  0
 10 11  1  0
 11 12  1  0
 12 13  2  0
 12 14  1  0
 14 15  1  0
 15 16  1  0
 16 17  2  0
 17 18  1  0
 18 19  3  0
 19 20  1  0
 20 21  2  0
 21 22  1  0
 22 23  2  0
 23 24  1  0
 24 25  2  0
 17 26  1  0
 26 27  1  0
 26 28  1  0
 10 29  1  0
 29 30  2  0
 30 31  1  0
 31 32  1  0
 31 33  1  0
 31 34  1  0
  5 35  1  0
 35 36  1  0
 36  2  1  0
 30  7  1  0
 28 15  2  0
 25 20  1  0
M  END
>  <pIC50>  (569) 
7.495

>  <ChEMBL_ID>  (569) 
CHEMBL2324928

>  <document_journal>  (569) 
J. Med. Chem.

>  <bao_endpoint>  (569) 
BAO_0000190

>  <potential_duplicate>  (569) 
False

>  <uo_units>  (569) 
UO_0000065

>  <canonical_smiles>  (569) 
CN1CCN(Cc2ccc(NC(=O)Nc3cc(C#Cc4cccnc4)n(C)n3)cc2C(F)(F)F)CC1

>  <parent_molecule_chembl_id>  (569) 
CHEMBL2324928

>  <assay_type>  (569) 
B

>  <src_id>  (569) 
1

>  <ligand_efficiency>  (569) 
{u'le': u'0.28', u'bei': u'15.09', u'sei': u'9.59', u'lle': u'3.58'}

>  <standard_flag>  (569) 
True

>  <molecule_chembl_id>  (569) 
CHEMBL2324928

>  <target_organism>  (569) 
Homo sapiens

>  <standard_units>  (569) 
nM

>  <record_id>  (569) 
1851148

>  <document_chembl_id>  (569) 
CHEMBL2321864

>  <bao_format>  (569) 
BAO_0000357

>  <data_validity_description>  (569) 
None

>  <activity_id>  (569) 
12657854

>  <standard_type>  (569) 
IC50

>  <target_chembl_id>  (569) 
CHEMBL1862

>  <data_validity_comment>  (569) 
None

>  <published_value>  (569) 
31

>  <document_year>  (569) 
2013

>  <target_pref_name>  (569) 
Tyrosine-protein kinase ABL

>  <assay_chembl_id>  (569) 
CHEMBL2330093

>  <standard_relation>  (569) 
=

>  <assay_description>  (569) 
Inhibition of Abl1 kinase (unknown origin) using Tyr 6 peptide as substrate assessed as residual enzyme activity after every 10 secs measured for 10 mins

>  <published_relation>  (569) 
=

>  <standard_value>  (569) 
31

>  <qudt_units>  (569) 
http://www.openphacts.org/units/Nanomolar

>  <target_tax_id>  (569) 
9606

>  <bao_label>  (569) 
single protein format

>  <published_units>  (569) 
nM

>  <pchembl_value>  (569) 
7.51

>  <published_type>  (569) 
IC50

>  <activity_comment>  (569) 
None

$$$$

     RDKit          

 39 43  0  0  0  0  0  0  0  0999 V2000
    0.0000    0.0000    0.0000 C   0  0  0  0  0  0  0  0  0  0  0  0
    0.0000    0.0000    0.0000 N   0  0  0  0  0  0  0  0  0  0  0  0
    0.0000    0.0000    0.0000 C   0  0  0  0  0  0  0  0  0  0  0  0
    0.0000    0.0000    0.0000 C   0  0  0  0  0  0  0  0  0  0  0  0
    0.0000    0.0000    0.0000 N   0  0  0  0  0  0  0  0  0  0  0  0
    0.0000    0.0000    0.0000 C   0  0  0  0  0  0  0  0  0  0  0  0
    0.0000    0.0000    0.0000 C   0  0  0  0  0  0  0  0  0  0  0  0
    0.0000    0.0000    0.0000 C   0  0  0  0  0  0  0  0  0  0  0  0
    0.0000    0.0000    0.0000 C   0  0  0  0  0  0  0  0  0  0  0  0
    0.0000    0.0000    0.0000 C   0  0  0  0  0  0  0  0  0  0  0  0
    0.0000    0.0000    0.0000 N   0  0  0  0  0  0  0  0  0  0  0  0
    0.0000    0.0000    0.0000 C   0  0  0  0  0  0  0  0  0  0  0  0
    0.0000    0.0000    0.0000 O   0  0  0  0  0  0  0  0  0  0  0  0
    0.0000    0.0000    0.0000 N   0  0  0  0  0  0  0  0  0  0  0  0
    0.0000    0.0000    0.0000 C   0  0  0  0  0  0  0  0  0  0  0  0
    0.0000    0.0000    0.0000 C   0  0  0  0  0  0  0  0  0  0  0  0
    0.0000    0.0000    0.0000 C   0  0  0  0  0  0  0  0  0  0  0  0
    0.0000    0.0000    0.0000 C   0  0  0  0  0  0  0  0  0  0  0  0
    0.0000    0.0000    0.0000 C   0  0  0  0  0  0  0  0  0  0  0  0
    0.0000    0.0000    0.0000 C   0  0  0  0  0  0  0  0  0  0  0  0
    0.0000    0.0000    0.0000 C   0  0  0  0  0  0  0  0  0  0  0  0
    0.0000    0.0000    0.0000 N   0  0  0  0  0  0  0  0  0  0  0  0
    0.0000    0.0000    0.0000 C   0  0  0  0  0  0  0  0  0  0  0  0
    0.0000    0.0000    0.0000 C   0  0  0  0  0  0  0  0  0  0  0  0
    0.0000    0.0000    0.0000 C   0  0  0  0  0  0  0  0  0  0  0  0
    0.0000    0.0000    0.0000 C   0  0  0  0  0  0  0  0  0  0  0  0
    0.0000    0.0000    0.0000 C   0  0  0  0  0  0  0  0  0  0  0  0
    0.0000    0.0000    0.0000 N   0  0  0  0  0  0  0  0  0  0  0  0
    0.0000    0.0000    0.0000 N   0  0  0  0  0  0  0  0  0  0  0  0
    0.0000    0.0000    0.0000 C   0  0  0  0  0  0  0  0  0  0  0  0
    0.0000    0.0000    0.0000 N   0  0  0  0  0  0  0  0  0  0  0  0
    0.0000    0.0000    0.0000 C   0  0  0  0  0  0  0  0  0  0  0  0
    0.0000    0.0000    0.0000 C   0  0  0  0  0  0  0  0  0  0  0  0
    0.0000    0.0000    0.0000 C   0  0  0  0  0  0  0  0  0  0  0  0
    0.0000    0.0000    0.0000 F   0  0  0  0  0  0  0  0  0  0  0  0
    0.0000    0.0000    0.0000 F   0  0  0  0  0  0  0  0  0  0  0  0
    0.0000    0.0000    0.0000 F   0  0  0  0  0  0  0  0  0  0  0  0
    0.0000    0.0000    0.0000 C   0  0  0  0  0  0  0  0  0  0  0  0
    0.0000    0.0000    0.0000 C   0  0  0  0  0  0  0  0  0  0  0  0
  1  2  1  0
  2  3  1  0
  3  4  1  0
  4  5  1  0
  5  6  1  0
  6  7  1  0
  7  8  2  0
  8  9  1  0
  9 10  2  0
 10 11  1  0
 11 12  1  0
 12 13  2  0
 12 14  1  0
 14 15  1  0
 15 16  1  0
 16 17  2  0
 17 18  1  0
 18 19  3  0
 19 20  1  0
 20 21  2  0
 21 22  1  0
 22 23  2  0
 23 24  1  0
 24 25  2  0
 25 26  1  0
 26 27  2  0
 27 28  1  0
 17 29  1  0
 29 30  1  0
 29 31  1  0
 10 32  1  0
 32 33  2  0
 33 34  1  0
 34 35  1  0
 34 36  1  0
 34 37  1  0
  5 38  1  0
 38 39  1  0
 39  2  1  0
 33  7  1  0
 31 15  2  0
 28 20  1  0
 28 23  1  0
M  END
>  <pIC50>  (570) 
6.52

>  <ChEMBL_ID>  (570) 
CHEMBL2324927

>  <document_journal>  (570) 
J. Med. Chem.

>  <bao_endpoint>  (570) 
BAO_0000190

>  <potential_duplicate>  (570) 
False

>  <uo_units>  (570) 
UO_0000065

>  <canonical_smiles>  (570) 
CN1CCN(Cc2ccc(NC(=O)Nc3cc(C#Cc4cnc5ccccn45)n(C)n3)cc2C(F)(F)F)CC1

>  <parent_molecule_chembl_id>  (570) 
CHEMBL2324927

>  <assay_type>  (570) 
B

>  <src_id>  (570) 
1

>  <ligand_efficiency>  (570) 
{u'le': u'0.26', u'bei': u'14.02', u'sei': u'9.09', u'lle': u'3.27'}

>  <standard_flag>  (570) 
True

>  <molecule_chembl_id>  (570) 
CHEMBL2324927

>  <target_organism>  (570) 
Homo sapiens

>  <standard_units>  (570) 
nM

>  <record_id>  (570) 
1851147

>  <document_chembl_id>  (570) 
CHEMBL2321864

>  <bao_format>  (570) 
BAO_0000357

>  <data_validity_description>  (570) 
None

>  <activity_id>  (570) 
12657858

>  <standard_type>  (570) 
IC50

>  <target_chembl_id>  (570) 
CHEMBL1862

>  <data_validity_comment>  (570) 
None

>  <published_value>  (570) 
30

>  <document_year>  (570) 
2013

>  <target_pref_name>  (570) 
Tyrosine-protein kinase ABL

>  <assay_chembl_id>  (570) 
CHEMBL2330093

>  <standard_relation>  (570) 
=

>  <assay_description>  (570) 
Inhibition of Abl1 kinase (unknown origin) using Tyr 6 peptide as substrate assessed as residual enzyme activity after every 10 secs measured for 10 mins

>  <published_relation>  (570) 
=

>  <standard_value>  (570) 
30

>  <qudt_units>  (570) 
http://www.openphacts.org/units/Nanomolar

>  <target_tax_id>  (570) 
9606

>  <bao_label>  (570) 
single protein format

>  <published_units>  (570) 
nM

>  <pchembl_value>  (570) 
7.52

>  <published_type>  (570) 
IC50

>  <activity_comment>  (570) 
None

$$$$

     RDKit          

 41 45  0  0  0  0  0  0  0  0999 V2000
    0.0000    0.0000    0.0000 C   0  0  0  0  0  0  0  0  0  0  0  0
    0.0000    0.0000    0.0000 C   0  0  0  0  0  0  0  0  0  0  0  0
    0.0000    0.0000    0.0000 C   0  0  0  0  0  0  0  0  0  0  0  0
    0.0000    0.0000    0.0000 C   0  0  0  0  0  0  0  0  0  0  0  0
    0.0000    0.0000    0.0000 C   0  0  0  0  0  0  0  0  0  0  0  0
    0.0000    0.0000    0.0000 N   0  0  0  0  0  0  0  0  0  0  0  0
    0.0000    0.0000    0.0000 C   0  0  0  0  0  0  0  0  0  0  0  0
    0.0000    0.0000    0.0000 O   0  0  0  0  0  0  0  0  0  0  0  0
    0.0000    0.0000    0.0000 C   0  0  0  0  0  0  0  0  0  0  0  0
    0.0000    0.0000    0.0000 C   0  0  0  0  0  0  0  0  0  0  0  0
    0.0000    0.0000    0.0000 C   0  0  0  0  0  0  0  0  0  0  0  0
    0.0000    0.0000    0.0000 C   0  0  0  0  0  0  0  0  0  0  0  0
    0.0000    0.0000    0.0000 C   0  0  0  0  0  0  0  0  0  0  0  0
    0.0000    0.0000    0.0000 N   0  0  0  0  0  0  0  0  0  0  0  0
    0.0000    0.0000    0.0000 C   0  0  0  0  0  0  0  0  0  0  0  0
    0.0000    0.0000    0.0000 C   0  0  0  0  0  0  0  0  0  0  0  0
    0.0000    0.0000    0.0000 N   0  0  0  0  0  0  0  0  0  0  0  0
    0.0000    0.0000    0.0000 C   0  0  0  0  0  0  0  0  0  0  0  0
    0.0000    0.0000    0.0000 C   0  0  0  0  0  0  0  0  0  0  0  0
    0.0000    0.0000    0.0000 C   0  0  0  0  0  0  0  0  0  0  0  0
    0.0000    0.0000    0.0000 C   0  0  0  0  0  0  0  0  0  0  0  0
    0.0000    0.0000    0.0000 F   0  0  0  0  0  0  0  0  0  0  0  0
    0.0000    0.0000    0.0000 F   0  0  0  0  0  0  0  0  0  0  0  0
    0.0000    0.0000    0.0000 F   0  0  0  0  0  0  0  0  0  0  0  0
    0.0000    0.0000    0.0000 C   0  0  0  0  0  0  0  0  0  0  0  0
    0.0000    0.0000    0.0000 C   0  0  0  0  0  0  0  0  0  0  0  0
    0.0000    0.0000    0.0000 C   0  0  0  0  0  0  0  0  0  0  0  0
    0.0000    0.0000    0.0000 C   0  0  0  0  0  0  0  0  0  0  0  0
    0.0000    0.0000    0.0000 C   0  0  0  0  0  0  0  0  0  0  0  0
    0.0000    0.0000    0.0000 N   0  0  0  0  0  0  0  0  0  0  0  0
    0.0000    0.0000    0.0000 C   0  0  0  0  0  0  0  0  0  0  0  0
    0.0000    0.0000    0.0000 C   0  0  0  0  0  0  0  0  0  0  0  0
    0.0000    0.0000    0.0000 N   0  0  0  0  0  0  0  0  0  0  0  0
    0.0000    0.0000    0.0000 C   0  0  0  0  0  0  0  0  0  0  0  0
    0.0000    0.0000    0.0000 C   0  0  0  0  0  0  0  0  0  0  0  0
    0.0000    0.0000    0.0000 C   0  0  0  0  0  0  0  0  0  0  0  0
    0.0000    0.0000    0.0000 C   0  0  0  0  0  0  0  0  0  0  0  0
    0.0000    0.0000    0.0000 C   0  0  0  0  0  0  0  0  0  0  0  0
    0.0000    0.0000    0.0000 C   0  0  0  0  0  0  0  0  0  0  0  0
    0.0000    0.0000    0.0000 C   0  0  0  0  0  0  0  0  0  0  0  0
    0.0000    0.0000    0.0000 N   0  0  0  0  0  0  0  0  0  0  0  0
  1  2  1  0
  2  3  2  0
  3  4  1  0
  4  5  2  0
  5  6  1  0
  6  7  1  0
  7  8  2  0
  7  9  1  0
  9 10  2  0
 10 11  1  0
 11 12  2  0
 12 13  1  0
 13 14  1  0
 14 15  1  0
 15 16  2  0
 16 17  1  0
 17 18  2  0
 12 19  1  0
 19 20  2  0
 19 21  1  0
 21 22  1  0
 21 23  1  0
 21 24  1  0
  5 25  1  0
 25 26  2  0
 26 27  1  0
 27 28  3  0
 28 29  1  0
 29 30  2  0
 30 31  1  0
 31 32  2  0
 32 33  1  0
 33 34  1  0
 34 35  2  0
 35 36  1  0
 36 37  2  0
 37 38  1  0
 38 39  2  0
 32 40  1  0
 40 41  2  0
 26  2  1  0
 20  9  1  0
 18 14  1  0
 41 29  1  0
 39 34  1  0
M  END
>  <pIC50>  (571) 
6.57

>  <ChEMBL_ID>  (571) 
CHEMBL2321908

>  <document_journal>  (571) 
J. Med. Chem.

>  <bao_endpoint>  (571) 
BAO_0000190

>  <potential_duplicate>  (571) 
False

>  <uo_units>  (571) 
UO_0000065

>  <canonical_smiles>  (571) 
Cc1ccc(NC(=O)c2ccc(Cn3ccnc3)c(c2)C(F)(F)F)cc1C#Cc4ncc(Nc5ccccc5)cn4

>  <parent_molecule_chembl_id>  (571) 
CHEMBL2321908

>  <assay_type>  (571) 
B

>  <src_id>  (571) 
1

>  <ligand_efficiency>  (571) 
{u'le': u'0.22', u'bei': u'11.79', u'sei': u'7.69', u'lle': u'0.81'}

>  <standard_flag>  (571) 
True

>  <molecule_chembl_id>  (571) 
CHEMBL2321908

>  <target_organism>  (571) 
Homo sapiens

>  <standard_units>  (571) 
nM

>  <record_id>  (571) 
1851146

>  <document_chembl_id>  (571) 
CHEMBL2321864

>  <bao_format>  (571) 
BAO_0000357

>  <data_validity_description>  (571) 
None

>  <activity_id>  (571) 
12657862

>  <standard_type>  (571) 
IC50

>  <target_chembl_id>  (571) 
CHEMBL1862

>  <data_validity_comment>  (571) 
None

>  <published_value>  (571) 
307

>  <document_year>  (571) 
2013

>  <target_pref_name>  (571) 
Tyrosine-protein kinase ABL

>  <assay_chembl_id>  (571) 
CHEMBL2330093

>  <standard_relation>  (571) 
=

>  <assay_description>  (571) 
Inhibition of Abl1 kinase (unknown origin) using Tyr 6 peptide as substrate assessed as residual enzyme activity after every 10 secs measured for 10 mins

>  <published_relation>  (571) 
=

>  <standard_value>  (571) 
307

>  <qudt_units>  (571) 
http://www.openphacts.org/units/Nanomolar

>  <target_tax_id>  (571) 
9606

>  <bao_label>  (571) 
single protein format

>  <published_units>  (571) 
nM

>  <pchembl_value>  (571) 
6.51

>  <published_type>  (571) 
IC50

>  <activity_comment>  (571) 
None

$$$$

     RDKit          

 39 43  0  0  0  0  0  0  0  0999 V2000
    0.0000    0.0000    0.0000 C   0  0  0  0  0  0  0  0  0  0  0  0
    0.0000    0.0000    0.0000 N   0  0  0  0  0  0  0  0  0  0  0  0
    0.0000    0.0000    0.0000 C   0  0  0  0  0  0  0  0  0  0  0  0
    0.0000    0.0000    0.0000 C   0  0  0  0  0  0  0  0  0  0  0  0
    0.0000    0.0000    0.0000 N   0  0  0  0  0  0  0  0  0  0  0  0
    0.0000    0.0000    0.0000 C   0  0  0  0  0  0  0  0  0  0  0  0
    0.0000    0.0000    0.0000 C   0  0  0  0  0  0  0  0  0  0  0  0
    0.0000    0.0000    0.0000 C   0  0  0  0  0  0  0  0  0  0  0  0
    0.0000    0.0000    0.0000 C   0  0  0  0  0  0  0  0  0  0  0  0
    0.0000    0.0000    0.0000 C   0  0  0  0  0  0  0  0  0  0  0  0
    0.0000    0.0000    0.0000 N   0  0  0  0  0  0  0  0  0  0  0  0
    0.0000    0.0000    0.0000 C   0  0  0  0  0  0  0  0  0  0  0  0
    0.0000    0.0000    0.0000 O   0  0  0  0  0  0  0  0  0  0  0  0
    0.0000    0.0000    0.0000 N   0  0  0  0  0  0  0  0  0  0  0  0
    0.0000    0.0000    0.0000 C   0  0  0  0  0  0  0  0  0  0  0  0
    0.0000    0.0000    0.0000 C   0  0  0  0  0  0  0  0  0  0  0  0
    0.0000    0.0000    0.0000 C   0  0  0  0  0  0  0  0  0  0  0  0
    0.0000    0.0000    0.0000 C   0  0  0  0  0  0  0  0  0  0  0  0
    0.0000    0.0000    0.0000 C   0  0  0  0  0  0  0  0  0  0  0  0
    0.0000    0.0000    0.0000 C   0  0  0  0  0  0  0  0  0  0  0  0
    0.0000    0.0000    0.0000 C   0  0  0  0  0  0  0  0  0  0  0  0
    0.0000    0.0000    0.0000 N   0  0  0  0  0  0  0  0  0  0  0  0
    0.0000    0.0000    0.0000 C   0  0  0  0  0  0  0  0  0  0  0  0
    0.0000    0.0000    0.0000 C   0  0  0  0  0  0  0  0  0  0  0  0
    0.0000    0.0000    0.0000 C   0  0  0  0  0  0  0  0  0  0  0  0
    0.0000    0.0000    0.0000 C   0  0  0  0  0  0  0  0  0  0  0  0
    0.0000    0.0000    0.0000 N   0  0  0  0  0  0  0  0  0  0  0  0
    0.0000    0.0000    0.0000 N   0  0  0  0  0  0  0  0  0  0  0  0
    0.0000    0.0000    0.0000 N   0  0  0  0  0  0  0  0  0  0  0  0
    0.0000    0.0000    0.0000 C   0  0  0  0  0  0  0  0  0  0  0  0
    0.0000    0.0000    0.0000 N   0  0  0  0  0  0  0  0  0  0  0  0
    0.0000    0.0000    0.0000 C   0  0  0  0  0  0  0  0  0  0  0  0
    0.0000    0.0000    0.0000 C   0  0  0  0  0  0  0  0  0  0  0  0
    0.0000    0.0000    0.0000 C   0  0  0  0  0  0  0  0  0  0  0  0
    0.0000    0.0000    0.0000 F   0  0  0  0  0  0  0  0  0  0  0  0
    0.0000    0.0000    0.0000 F   0  0  0  0  0  0  0  0  0  0  0  0
    0.0000    0.0000    0.0000 F   0  0  0  0  0  0  0  0  0  0  0  0
    0.0000    0.0000    0.0000 C   0  0  0  0  0  0  0  0  0  0  0  0
    0.0000    0.0000    0.0000 C   0  0  0  0  0  0  0  0  0  0  0  0
  1  2  1  0
  2  3  1  0
  3  4  1  0
  4  5  1  0
  5  6  1  0
  6  7  1  0
  7  8  2  0
  8  9  1  0
  9 10  2  0
 10 11  1  0
 11 12  1  0
 12 13  2  0
 12 14  1  0
 14 15  1  0
 15 16  1  0
 16 17  2  0
 17 18  1  0
 18 19  3  0
 19 20  1  0
 20 21  2  0
 21 22  1  0
 22 23  2  0
 23 24  1  0
 24 25  2  0
 25 26  1  0
 26 27  2  0
 27 28  1  0
 17 29  1  0
 29 30  1  0
 29 31  1  0
 10 32  1  0
 32 33  2  0
 33 34  1  0
 34 35  1  0
 34 36  1  0
 34 37  1  0
  5 38  1  0
 38 39  1  0
 39  2  1  0
 33  7  1  0
 31 15  2  0
 28 20  1  0
 28 23  1  0
M  END
>  <pIC50>  (572) 
8.16333333333

>  <ChEMBL_ID>  (572) 
CHEMBL2324926

>  <document_journal>  (572) 
J. Med. Chem.

>  <bao_endpoint>  (572) 
BAO_0000190

>  <potential_duplicate>  (572) 
False

>  <uo_units>  (572) 
UO_0000065

>  <canonical_smiles>  (572) 
CN1CCN(Cc2ccc(NC(=O)Nc3cc(C#Cc4cnc5cccnn45)n(C)n3)cc2C(F)(F)F)CC1

>  <parent_molecule_chembl_id>  (572) 
CHEMBL2324926

>  <assay_type>  (572) 
B

>  <src_id>  (572) 
1

>  <ligand_efficiency>  (572) 
{u'le': u'0.32', u'bei': u'16.74', u'sei': u'9.41', u'lle': u'5.21'}

>  <standard_flag>  (572) 
True

>  <molecule_chembl_id>  (572) 
CHEMBL2324926

>  <target_organism>  (572) 
Homo sapiens

>  <standard_units>  (572) 
nM

>  <record_id>  (572) 
1851145

>  <document_chembl_id>  (572) 
CHEMBL2321864

>  <bao_format>  (572) 
BAO_0000357

>  <data_validity_description>  (572) 
None

>  <activity_id>  (572) 
12657873

>  <standard_type>  (572) 
IC50

>  <target_chembl_id>  (572) 
CHEMBL1862

>  <data_validity_comment>  (572) 
None

>  <published_value>  (572) 
1

>  <document_year>  (572) 
2013

>  <target_pref_name>  (572) 
Tyrosine-protein kinase ABL

>  <assay_chembl_id>  (572) 
CHEMBL2330091

>  <standard_relation>  (572) 
=

>  <assay_description>  (572) 
Inhibition of wild type Abl1 kinase (unknown origin)

>  <published_relation>  (572) 
=

>  <standard_value>  (572) 
1

>  <qudt_units>  (572) 
http://www.openphacts.org/units/Nanomolar

>  <target_tax_id>  (572) 
9606

>  <bao_label>  (572) 
single protein format

>  <published_units>  (572) 
nM

>  <pchembl_value>  (572) 
9

>  <published_type>  (572) 
IC50

>  <activity_comment>  (572) 
None

$$$$

     RDKit          

 39 43  0  0  0  0  0  0  0  0999 V2000
    0.0000    0.0000    0.0000 C   0  0  0  0  0  0  0  0  0  0  0  0
    0.0000    0.0000    0.0000 N   0  0  0  0  0  0  0  0  0  0  0  0
    0.0000    0.0000    0.0000 C   0  0  0  0  0  0  0  0  0  0  0  0
    0.0000    0.0000    0.0000 C   0  0  0  0  0  0  0  0  0  0  0  0
    0.0000    0.0000    0.0000 N   0  0  0  0  0  0  0  0  0  0  0  0
    0.0000    0.0000    0.0000 C   0  0  0  0  0  0  0  0  0  0  0  0
    0.0000    0.0000    0.0000 C   0  0  0  0  0  0  0  0  0  0  0  0
    0.0000    0.0000    0.0000 C   0  0  0  0  0  0  0  0  0  0  0  0
    0.0000    0.0000    0.0000 C   0  0  0  0  0  0  0  0  0  0  0  0
    0.0000    0.0000    0.0000 C   0  0  0  0  0  0  0  0  0  0  0  0
    0.0000    0.0000    0.0000 N   0  0  0  0  0  0  0  0  0  0  0  0
    0.0000    0.0000    0.0000 C   0  0  0  0  0  0  0  0  0  0  0  0
    0.0000    0.0000    0.0000 O   0  0  0  0  0  0  0  0  0  0  0  0
    0.0000    0.0000    0.0000 N   0  0  0  0  0  0  0  0  0  0  0  0
    0.0000    0.0000    0.0000 C   0  0  0  0  0  0  0  0  0  0  0  0
    0.0000    0.0000    0.0000 C   0  0  0  0  0  0  0  0  0  0  0  0
    0.0000    0.0000    0.0000 C   0  0  0  0  0  0  0  0  0  0  0  0
    0.0000    0.0000    0.0000 C   0  0  0  0  0  0  0  0  0  0  0  0
    0.0000    0.0000    0.0000 C   0  0  0  0  0  0  0  0  0  0  0  0
    0.0000    0.0000    0.0000 C   0  0  0  0  0  0  0  0  0  0  0  0
    0.0000    0.0000    0.0000 C   0  0  0  0  0  0  0  0  0  0  0  0
    0.0000    0.0000    0.0000 N   0  0  0  0  0  0  0  0  0  0  0  0
    0.0000    0.0000    0.0000 C   0  0  0  0  0  0  0  0  0  0  0  0
    0.0000    0.0000    0.0000 C   0  0  0  0  0  0  0  0  0  0  0  0
    0.0000    0.0000    0.0000 N   0  0  0  0  0  0  0  0  0  0  0  0
    0.0000    0.0000    0.0000 C   0  0  0  0  0  0  0  0  0  0  0  0
    0.0000    0.0000    0.0000 C   0  0  0  0  0  0  0  0  0  0  0  0
    0.0000    0.0000    0.0000 N   0  0  0  0  0  0  0  0  0  0  0  0
    0.0000    0.0000    0.0000 N   0  0  0  0  0  0  0  0  0  0  0  0
    0.0000    0.0000    0.0000 C   0  0  0  0  0  0  0  0  0  0  0  0
    0.0000    0.0000    0.0000 N   0  0  0  0  0  0  0  0  0  0  0  0
    0.0000    0.0000    0.0000 C   0  0  0  0  0  0  0  0  0  0  0  0
    0.0000    0.0000    0.0000 C   0  0  0  0  0  0  0  0  0  0  0  0
    0.0000    0.0000    0.0000 C   0  0  0  0  0  0  0  0  0  0  0  0
    0.0000    0.0000    0.0000 F   0  0  0  0  0  0  0  0  0  0  0  0
    0.0000    0.0000    0.0000 F   0  0  0  0  0  0  0  0  0  0  0  0
    0.0000    0.0000    0.0000 F   0  0  0  0  0  0  0  0  0  0  0  0
    0.0000    0.0000    0.0000 C   0  0  0  0  0  0  0  0  0  0  0  0
    0.0000    0.0000    0.0000 C   0  0  0  0  0  0  0  0  0  0  0  0
  1  2  1  0
  2  3  1  0
  3  4  1  0
  4  5  1  0
  5  6  1  0
  6  7  1  0
  7  8  2  0
  8  9  1  0
  9 10  2  0
 10 11  1  0
 11 12  1  0
 12 13  2  0
 12 14  1  0
 14 15  1  0
 15 16  1  0
 16 17  2  0
 17 18  1  0
 18 19  3  0
 19 20  1  0
 20 21  2  0
 21 22  1  0
 22 23  2  0
 23 24  1  0
 24 25  2  0
 25 26  1  0
 26 27  2  0
 27 28  1  0
 17 29  1  0
 29 30  1  0
 29 31  1  0
 10 32  1  0
 32 33  2  0
 33 34  1  0
 34 35  1  0
 34 36  1  0
 34 37  1  0
  5 38  1  0
 38 39  1  0
 39  2  1  0
 33  7  1  0
 31 15  2  0
 28 20  1  0
 28 23  1  0
M  END
>  <pIC50>  (573) 
8.85333333333

>  <ChEMBL_ID>  (573) 
CHEMBL2324925

>  <document_journal>  (573) 
J. Med. Chem.

>  <bao_endpoint>  (573) 
BAO_0000190

>  <potential_duplicate>  (573) 
False

>  <uo_units>  (573) 
UO_0000065

>  <canonical_smiles>  (573) 
CN1CCN(Cc2ccc(NC(=O)Nc3cc(C#Cc4cnc5cnccn45)n(C)n3)cc2C(F)(F)F)CC1

>  <parent_molecule_chembl_id>  (573) 
CHEMBL2324925

>  <assay_type>  (573) 
B

>  <src_id>  (573) 
1

>  <ligand_efficiency>  (573) 
{u'le': u'0.32', u'bei': u'16.74', u'sei': u'9.41', u'lle': u'5.9'}

>  <standard_flag>  (573) 
True

>  <molecule_chembl_id>  (573) 
CHEMBL2324925

>  <target_organism>  (573) 
Homo sapiens

>  <standard_units>  (573) 
nM

>  <record_id>  (573) 
1851144

>  <document_chembl_id>  (573) 
CHEMBL2321864

>  <bao_format>  (573) 
BAO_0000357

>  <data_validity_description>  (573) 
None

>  <activity_id>  (573) 
12657886

>  <standard_type>  (573) 
IC50

>  <target_chembl_id>  (573) 
CHEMBL1862

>  <data_validity_comment>  (573) 
None

>  <published_value>  (573) 
1

>  <document_year>  (573) 
2013

>  <target_pref_name>  (573) 
Tyrosine-protein kinase ABL

>  <assay_chembl_id>  (573) 
CHEMBL2330091

>  <standard_relation>  (573) 
=

>  <assay_description>  (573) 
Inhibition of wild type Abl1 kinase (unknown origin)

>  <published_relation>  (573) 
=

>  <standard_value>  (573) 
1

>  <qudt_units>  (573) 
http://www.openphacts.org/units/Nanomolar

>  <target_tax_id>  (573) 
9606

>  <bao_label>  (573) 
single protein format

>  <published_units>  (573) 
nM

>  <pchembl_value>  (573) 
9

>  <published_type>  (573) 
IC50

>  <activity_comment>  (573) 
None

$$$$

     RDKit          

 39 43  0  0  0  0  0  0  0  0999 V2000
    0.0000    0.0000    0.0000 C   0  0  0  0  0  0  0  0  0  0  0  0
    0.0000    0.0000    0.0000 N   0  0  0  0  0  0  0  0  0  0  0  0
    0.0000    0.0000    0.0000 C   0  0  0  0  0  0  0  0  0  0  0  0
    0.0000    0.0000    0.0000 C   0  0  0  0  0  0  0  0  0  0  0  0
    0.0000    0.0000    0.0000 N   0  0  0  0  0  0  0  0  0  0  0  0
    0.0000    0.0000    0.0000 C   0  0  0  0  0  0  0  0  0  0  0  0
    0.0000    0.0000    0.0000 C   0  0  0  0  0  0  0  0  0  0  0  0
    0.0000    0.0000    0.0000 C   0  0  0  0  0  0  0  0  0  0  0  0
    0.0000    0.0000    0.0000 C   0  0  0  0  0  0  0  0  0  0  0  0
    0.0000    0.0000    0.0000 C   0  0  0  0  0  0  0  0  0  0  0  0
    0.0000    0.0000    0.0000 N   0  0  0  0  0  0  0  0  0  0  0  0
    0.0000    0.0000    0.0000 C   0  0  0  0  0  0  0  0  0  0  0  0
    0.0000    0.0000    0.0000 O   0  0  0  0  0  0  0  0  0  0  0  0
    0.0000    0.0000    0.0000 C   0  0  0  0  0  0  0  0  0  0  0  0
    0.0000    0.0000    0.0000 C   0  0  0  0  0  0  0  0  0  0  0  0
    0.0000    0.0000    0.0000 C   0  0  0  0  0  0  0  0  0  0  0  0
    0.0000    0.0000    0.0000 C   0  0  0  0  0  0  0  0  0  0  0  0
    0.0000    0.0000    0.0000 C   0  0  0  0  0  0  0  0  0  0  0  0
    0.0000    0.0000    0.0000 C   0  0  0  0  0  0  0  0  0  0  0  0
    0.0000    0.0000    0.0000 C   0  0  0  0  0  0  0  0  0  0  0  0
    0.0000    0.0000    0.0000 C   0  0  0  0  0  0  0  0  0  0  0  0
    0.0000    0.0000    0.0000 C   0  0  0  0  0  0  0  0  0  0  0  0
    0.0000    0.0000    0.0000 C   0  0  0  0  0  0  0  0  0  0  0  0
    0.0000    0.0000    0.0000 C   0  0  0  0  0  0  0  0  0  0  0  0
    0.0000    0.0000    0.0000 N   0  0  0  0  0  0  0  0  0  0  0  0
    0.0000    0.0000    0.0000 C   0  0  0  0  0  0  0  0  0  0  0  0
    0.0000    0.0000    0.0000 C   0  0  0  0  0  0  0  0  0  0  0  0
    0.0000    0.0000    0.0000 N   0  0  0  0  0  0  0  0  0  0  0  0
    0.0000    0.0000    0.0000 C   0  0  0  0  0  0  0  0  0  0  0  0
    0.0000    0.0000    0.0000 C   0  0  0  0  0  0  0  0  0  0  0  0
    0.0000    0.0000    0.0000 N   0  0  0  0  0  0  0  0  0  0  0  0
    0.0000    0.0000    0.0000 C   0  0  0  0  0  0  0  0  0  0  0  0
    0.0000    0.0000    0.0000 C   0  0  0  0  0  0  0  0  0  0  0  0
    0.0000    0.0000    0.0000 C   0  0  0  0  0  0  0  0  0  0  0  0
    0.0000    0.0000    0.0000 F   0  0  0  0  0  0  0  0  0  0  0  0
    0.0000    0.0000    0.0000 F   0  0  0  0  0  0  0  0  0  0  0  0
    0.0000    0.0000    0.0000 F   0  0  0  0  0  0  0  0  0  0  0  0
    0.0000    0.0000    0.0000 C   0  0  0  0  0  0  0  0  0  0  0  0
    0.0000    0.0000    0.0000 C   0  0  0  0  0  0  0  0  0  0  0  0
  1  2  1  0
  2  3  1  0
  3  4  1  0
  4  5  1  0
  5  6  1  0
  6  7  1  0
  7  8  2  0
  8  9  1  0
  9 10  2  0
 10 11  1  0
 11 12  1  0
 12 13  2  0
 12 14  1  0
 14 15  2  0
 15 16  1  0
 16 17  2  0
 17 18  1  0
 17 19  1  0
 19 20  2  0
 19 21  1  0
 21 22  3  0
 22 23  1  0
 23 24  2  0
 24 25  1  0
 25 26  2  0
 26 27  1  0
 27 28  2  0
 28 29  1  0
 29 30  2  0
 30 31  1  0
 10 32  1  0
 32 33  2  0
 33 34  1  0
 34 35  1  0
 34 36  1  0
 34 37  1  0
  5 38  1  0
 38 39  1  0
 39  2  1  0
 33  7  1  0
 20 14  1  0
 31 23  1  0
 31 27  1  0
M  END
>  <pIC50>  (574) 
9.30666666667

>  <ChEMBL_ID>  (574) 
CHEMBL2324924

>  <document_journal>  (574) 
J. Med. Chem.

>  <bao_endpoint>  (574) 
BAO_0000190

>  <potential_duplicate>  (574) 
False

>  <uo_units>  (574) 
UO_0000065

>  <canonical_smiles>  (574) 
CN1CCN(Cc2ccc(NC(=O)c3ccc(C)c(c3)C#Cc4cncc5nccn45)cc2C(F)(F)F)CC1

>  <parent_molecule_chembl_id>  (574) 
CHEMBL2324924

>  <assay_type>  (574) 
B

>  <src_id>  (574) 
1

>  <ligand_efficiency>  (574) 
{u'le': u'0.32', u'bei': u'17.32', u'sei': u'14.02', u'lle': u'5.02'}

>  <standard_flag>  (574) 
True

>  <molecule_chembl_id>  (574) 
CHEMBL2324924

>  <target_organism>  (574) 
Homo sapiens

>  <standard_units>  (574) 
nM

>  <record_id>  (574) 
1851143

>  <document_chembl_id>  (574) 
CHEMBL2321864

>  <bao_format>  (574) 
BAO_0000357

>  <data_validity_description>  (574) 
None

>  <activity_id>  (574) 
12657899

>  <standard_type>  (574) 
IC50

>  <target_chembl_id>  (574) 
CHEMBL1862

>  <data_validity_comment>  (574) 
None

>  <published_value>  (574) 
0.6

>  <document_year>  (574) 
2013

>  <target_pref_name>  (574) 
Tyrosine-protein kinase ABL

>  <assay_chembl_id>  (574) 
CHEMBL2330091

>  <standard_relation>  (574) 
=

>  <assay_description>  (574) 
Inhibition of wild type Abl1 kinase (unknown origin)

>  <published_relation>  (574) 
=

>  <standard_value>  (574) 
0.6

>  <qudt_units>  (574) 
http://www.openphacts.org/units/Nanomolar

>  <target_tax_id>  (574) 
9606

>  <bao_label>  (574) 
single protein format

>  <published_units>  (574) 
nM

>  <pchembl_value>  (574) 
9.22

>  <published_type>  (574) 
IC50

>  <activity_comment>  (574) 
None

$$$$

     RDKit          

 39 43  0  0  0  0  0  0  0  0999 V2000
    0.0000    0.0000    0.0000 C   0  0  0  0  0  0  0  0  0  0  0  0
    0.0000    0.0000    0.0000 N   0  0  0  0  0  0  0  0  0  0  0  0
    0.0000    0.0000    0.0000 C   0  0  0  0  0  0  0  0  0  0  0  0
    0.0000    0.0000    0.0000 C   0  0  0  0  0  0  0  0  0  0  0  0
    0.0000    0.0000    0.0000 N   0  0  0  0  0  0  0  0  0  0  0  0
    0.0000    0.0000    0.0000 C   0  0  0  0  0  0  0  0  0  0  0  0
    0.0000    0.0000    0.0000 C   0  0  0  0  0  0  0  0  0  0  0  0
    0.0000    0.0000    0.0000 C   0  0  0  0  0  0  0  0  0  0  0  0
    0.0000    0.0000    0.0000 C   0  0  0  0  0  0  0  0  0  0  0  0
    0.0000    0.0000    0.0000 C   0  0  0  0  0  0  0  0  0  0  0  0
    0.0000    0.0000    0.0000 N   0  0  0  0  0  0  0  0  0  0  0  0
    0.0000    0.0000    0.0000 C   0  0  0  0  0  0  0  0  0  0  0  0
    0.0000    0.0000    0.0000 O   0  0  0  0  0  0  0  0  0  0  0  0
    0.0000    0.0000    0.0000 N   0  0  0  0  0  0  0  0  0  0  0  0
    0.0000    0.0000    0.0000 C   0  0  0  0  0  0  0  0  0  0  0  0
    0.0000    0.0000    0.0000 C   0  0  0  0  0  0  0  0  0  0  0  0
    0.0000    0.0000    0.0000 C   0  0  0  0  0  0  0  0  0  0  0  0
    0.0000    0.0000    0.0000 C   0  0  0  0  0  0  0  0  0  0  0  0
    0.0000    0.0000    0.0000 C   0  0  0  0  0  0  0  0  0  0  0  0
    0.0000    0.0000    0.0000 C   0  0  0  0  0  0  0  0  0  0  0  0
    0.0000    0.0000    0.0000 C   0  0  0  0  0  0  0  0  0  0  0  0
    0.0000    0.0000    0.0000 N   0  0  0  0  0  0  0  0  0  0  0  0
    0.0000    0.0000    0.0000 C   0  0  0  0  0  0  0  0  0  0  0  0
    0.0000    0.0000    0.0000 C   0  0  0  0  0  0  0  0  0  0  0  0
    0.0000    0.0000    0.0000 N   0  0  0  0  0  0  0  0  0  0  0  0
    0.0000    0.0000    0.0000 C   0  0  0  0  0  0  0  0  0  0  0  0
    0.0000    0.0000    0.0000 C   0  0  0  0  0  0  0  0  0  0  0  0
    0.0000    0.0000    0.0000 N   0  0  0  0  0  0  0  0  0  0  0  0
    0.0000    0.0000    0.0000 N   0  0  0  0  0  0  0  0  0  0  0  0
    0.0000    0.0000    0.0000 C   0  0  0  0  0  0  0  0  0  0  0  0
    0.0000    0.0000    0.0000 N   0  0  0  0  0  0  0  0  0  0  0  0
    0.0000    0.0000    0.0000 C   0  0  0  0  0  0  0  0  0  0  0  0
    0.0000    0.0000    0.0000 C   0  0  0  0  0  0  0  0  0  0  0  0
    0.0000    0.0000    0.0000 C   0  0  0  0  0  0  0  0  0  0  0  0
    0.0000    0.0000    0.0000 F   0  0  0  0  0  0  0  0  0  0  0  0
    0.0000    0.0000    0.0000 F   0  0  0  0  0  0  0  0  0  0  0  0
    0.0000    0.0000    0.0000 F   0  0  0  0  0  0  0  0  0  0  0  0
    0.0000    0.0000    0.0000 C   0  0  0  0  0  0  0  0  0  0  0  0
    0.0000    0.0000    0.0000 C   0  0  0  0  0  0  0  0  0  0  0  0
  1  2  1  0
  2  3  1  0
  3  4  1  0
  4  5  1  0
  5  6  1  0
  6  7  1  0
  7  8  2  0
  8  9  1  0
  9 10  2  0
 10 11  1  0
 11 12  1  0
 12 13  2  0
 12 14  1  0
 14 15  1  0
 15 16  1  0
 16 17  2  0
 17 18  1  0
 18 19  3  0
 19 20  1  0
 20 21  2  0
 21 22  1  0
 22 23  2  0
 23 24  1  0
 24 25  2  0
 25 26  1  0
 26 27  2  0
 27 28  1  0
 17 29  1  0
 29 30  1  0
 29 31  1  0
 10 32  1  0
 32 33  2  0
 33 34  1  0
 34 35  1  0
 34 36  1  0
 34 37  1  0
  5 38  1  0
 38 39  1  0
 39  2  1  0
 33  7  1  0
 31 15  2  0
 28 20  1  0
 28 24  1  0
M  END
>  <pIC50>  (575) 
8.47333333333

>  <ChEMBL_ID>  (575) 
CHEMBL2324923

>  <document_journal>  (575) 
J. Med. Chem.

>  <bao_endpoint>  (575) 
BAO_0000190

>  <potential_duplicate>  (575) 
False

>  <uo_units>  (575) 
UO_0000065

>  <canonical_smiles>  (575) 
CN1CCN(Cc2ccc(NC(=O)Nc3cc(C#Cc4cncc5nccn45)n(C)n3)cc2C(F)(F)F)CC1

>  <parent_molecule_chembl_id>  (575) 
CHEMBL2324923

>  <assay_type>  (575) 
B

>  <src_id>  (575) 
1

>  <ligand_efficiency>  (575) 
{u'le': u'0.31', u'bei': u'16.36', u'sei': u'9.2', u'lle': u'5.7'}

>  <standard_flag>  (575) 
True

>  <molecule_chembl_id>  (575) 
CHEMBL2324923

>  <target_organism>  (575) 
Homo sapiens

>  <standard_units>  (575) 
nM

>  <record_id>  (575) 
1851142

>  <document_chembl_id>  (575) 
CHEMBL2321864

>  <bao_format>  (575) 
BAO_0000357

>  <data_validity_description>  (575) 
None

>  <activity_id>  (575) 
12657912

>  <standard_type>  (575) 
IC50

>  <target_chembl_id>  (575) 
CHEMBL1862

>  <data_validity_comment>  (575) 
None

>  <published_value>  (575) 
1.6

>  <document_year>  (575) 
2013

>  <target_pref_name>  (575) 
Tyrosine-protein kinase ABL

>  <assay_chembl_id>  (575) 
CHEMBL2330091

>  <standard_relation>  (575) 
=

>  <assay_description>  (575) 
Inhibition of wild type Abl1 kinase (unknown origin)

>  <published_relation>  (575) 
=

>  <standard_value>  (575) 
1.6

>  <qudt_units>  (575) 
http://www.openphacts.org/units/Nanomolar

>  <target_tax_id>  (575) 
9606

>  <bao_label>  (575) 
single protein format

>  <published_units>  (575) 
nM

>  <pchembl_value>  (575) 
8.8

>  <published_type>  (575) 
IC50

>  <activity_comment>  (575) 
None

$$$$

     RDKit          

 35 40  0  0  0  0  0  0  0  0999 V2000
    0.0000    0.0000    0.0000 C   0  0  0  0  0  0  0  0  0  0  0  0
    0.0000    0.0000    0.0000 C   0  0  0  0  0  0  0  0  0  0  0  0
    0.0000    0.0000    0.0000 C   0  0  0  0  0  0  0  0  0  0  0  0
    0.0000    0.0000    0.0000 C   0  0  0  0  0  0  0  0  0  0  0  0
    0.0000    0.0000    0.0000 N   0  0  0  0  0  0  0  0  0  0  0  0
    0.0000    0.0000    0.0000 C   0  0  0  0  0  0  0  0  0  0  0  0
    0.0000    0.0000    0.0000 C   0  0  0  0  0  0  0  0  0  0  0  0
    0.0000    0.0000    0.0000 N   0  0  0  0  0  0  0  0  0  0  0  0
    0.0000    0.0000    0.0000 C   0  0  0  0  0  0  0  0  0  0  0  0
    0.0000    0.0000    0.0000 C   0  0  0  0  0  0  0  0  0  0  0  0
    0.0000    0.0000    0.0000 O   0  0  0  0  0  0  0  0  0  0  0  0
    0.0000    0.0000    0.0000 N   0  0  0  0  0  0  0  0  0  0  0  0
    0.0000    0.0000    0.0000 C   0  0  0  0  0  0  0  0  0  0  0  0
    0.0000    0.0000    0.0000 O   0  0  0  0  0  0  0  0  0  0  0  0
    0.0000    0.0000    0.0000 N   0  0  0  0  0  0  0  0  0  0  0  0
    0.0000    0.0000    0.0000 C   0  0  0  0  0  0  0  0  0  0  0  0
    0.0000    0.0000    0.0000 C   0  0  0  0  0  0  0  0  0  0  0  0
    0.0000    0.0000    0.0000 N   0  0  0  0  0  0  0  0  0  0  0  0
    0.0000    0.0000    0.0000 C   0  0  0  0  0  0  0  0  0  0  0  0
    0.0000    0.0000    0.0000 C   0  0  0  0  0  0  0  0  0  0  0  0
    0.0000    0.0000    0.0000 C   0  0  0  0  0  0  0  0  0  0  0  0
    0.0000    0.0000    0.0000 C   0  0  0  0  0  0  0  0  0  0  0  0
    0.0000    0.0000    0.0000 C   0  0  0  0  0  0  0  0  0  0  0  0
    0.0000    0.0000    0.0000 C   0  0  0  0  0  0  0  0  0  0  0  0
    0.0000    0.0000    0.0000 C   0  0  0  0  0  0  0  0  0  0  0  0
    0.0000    0.0000    0.0000 C   0  0  0  0  0  0  0  0  0  0  0  0
    0.0000    0.0000    0.0000 C   0  0  0  0  0  0  0  0  0  0  0  0
    0.0000    0.0000    0.0000 C   0  0  0  0  0  0  0  0  0  0  0  0
    0.0000    0.0000    0.0000 C   0  0  0  0  0  0  0  0  0  0  0  0
    0.0000    0.0000    0.0000 C   0  0  0  0  0  0  0  0  0  0  0  0
    0.0000    0.0000    0.0000 C   0  0  0  0  0  0  0  0  0  0  0  0
    0.0000    0.0000    0.0000 N   0  0  0  0  0  0  0  0  0  0  0  0
    0.0000    0.0000    0.0000 N   0  0  0  0  0  0  0  0  0  0  0  0
    0.0000    0.0000    0.0000 C   0  0  0  0  0  0  0  0  0  0  0  0
    0.0000    0.0000    0.0000 C   0  0  0  0  0  0  0  0  0  0  0  0
  1  2  1  0
  2  3  1  0
  3  4  1  0
  4  5  1  0
  5  6  1  0
  6  7  2  0
  7  8  1  0
  8  9  1  0
  9 10  1  0
 10 11  2  0
 10 12  1  0
 12 13  1  0
 13 14  2  0
 13 15  1  0
 15 16  1  0
 15 17  1  0
 17 18  1  0
 18 19  2  0
  6 20  1  0
 20 21  2  0
 21 22  1  0
 22 23  2  0
 23 24  1  0
 24 25  2  0
 25 26  1  0
 22 27  1  0
 27 28  2  0
 28 29  1  0
 29 30  2  0
 30 31  1  0
 31 32  1  0
 32 33  1  0
 33 34  2  0
 34 35  1  0
 19  5  1  0
 19  8  1  0
 17  9  2  0
 25 20  1  0
 35 27  1  0
 35 31  2  0
M  END
>  <pIC50>  (576) 
6.69

>  <ChEMBL_ID>  (576) 
CHEMBL2333602

>  <document_journal>  (576) 
J. Med. Chem.

>  <bao_endpoint>  (576) 
BAO_0000190

>  <potential_duplicate>  (576) 
False

>  <uo_units>  (576) 
UO_0000065

>  <canonical_smiles>  (576) 
CCCCn1c(cn2c3C(=O)NC(=O)N(C)c3nc12)c4cc(ccc4C)c5cccc6[nH]ncc56

>  <parent_molecule_chembl_id>  (576) 
CHEMBL2333602

>  <assay_type>  (576) 
B

>  <src_id>  (576) 
1

>  <ligand_efficiency>  (576) 
{u'le': u'0.26', u'bei': u'14.31', u'sei': u'6.67', u'lle': u'2.06'}

>  <standard_flag>  (576) 
True

>  <molecule_chembl_id>  (576) 
CHEMBL2333602

>  <target_organism>  (576) 
Homo sapiens

>  <standard_units>  (576) 
nM

>  <record_id>  (576) 
1867651

>  <document_chembl_id>  (576) 
CHEMBL2331203

>  <bao_format>  (576) 
BAO_0000357

>  <data_validity_description>  (576) 
None

>  <activity_id>  (576) 
12674243

>  <standard_type>  (576) 
IC50

>  <target_chembl_id>  (576) 
CHEMBL1862

>  <data_validity_comment>  (576) 
None

>  <published_value>  (576) 
203

>  <document_year>  (576) 
2013

>  <target_pref_name>  (576) 
Tyrosine-protein kinase ABL

>  <assay_chembl_id>  (576) 
CHEMBL2344636

>  <standard_relation>  (576) 
=

>  <assay_description>  (576) 
Inhibition of Abl (unknown origin) using [gamma-33P]ATP after 30 mins by radiometric assay

>  <published_relation>  (576) 
=

>  <standard_value>  (576) 
203

>  <qudt_units>  (576) 
http://www.openphacts.org/units/Nanomolar

>  <target_tax_id>  (576) 
9606

>  <bao_label>  (576) 
single protein format

>  <published_units>  (576) 
nM

>  <pchembl_value>  (576) 
6.69

>  <published_type>  (576) 
IC50

>  <activity_comment>  (576) 
None

$$$$

     RDKit          

 27 30  0  0  0  0  0  0  0  0999 V2000
    0.0000    0.0000    0.0000 C   0  0  0  0  0  0  0  0  0  0  0  0
    0.0000    0.0000    0.0000 C   0  0  0  0  0  0  0  0  0  0  0  0
    0.0000    0.0000    0.0000 C   0  0  0  0  0  0  0  0  0  0  0  0
    0.0000    0.0000    0.0000 C   0  0  0  0  0  0  0  0  0  0  0  0
    0.0000    0.0000    0.0000 N   0  0  0  0  0  0  0  0  0  0  0  0
    0.0000    0.0000    0.0000 C   0  0  0  0  0  0  0  0  0  0  0  0
    0.0000    0.0000    0.0000 C   0  0  0  0  0  0  0  0  0  0  0  0
    0.0000    0.0000    0.0000 N   0  0  0  0  0  0  0  0  0  0  0  0
    0.0000    0.0000    0.0000 C   0  0  0  0  0  0  0  0  0  0  0  0
    0.0000    0.0000    0.0000 C   0  0  0  0  0  0  0  0  0  0  0  0
    0.0000    0.0000    0.0000 O   0  0  0  0  0  0  0  0  0  0  0  0
    0.0000    0.0000    0.0000 N   0  0  0  0  0  0  0  0  0  0  0  0
    0.0000    0.0000    0.0000 C   0  0  0  0  0  0  0  0  0  0  0  0
    0.0000    0.0000    0.0000 O   0  0  0  0  0  0  0  0  0  0  0  0
    0.0000    0.0000    0.0000 N   0  0  0  0  0  0  0  0  0  0  0  0
    0.0000    0.0000    0.0000 C   0  0  0  0  0  0  0  0  0  0  0  0
    0.0000    0.0000    0.0000 C   0  0  0  0  0  0  0  0  0  0  0  0
    0.0000    0.0000    0.0000 N   0  0  0  0  0  0  0  0  0  0  0  0
    0.0000    0.0000    0.0000 C   0  0  0  0  0  0  0  0  0  0  0  0
    0.0000    0.0000    0.0000 C   0  0  0  0  0  0  0  0  0  0  0  0
    0.0000    0.0000    0.0000 C   0  0  0  0  0  0  0  0  0  0  0  0
    0.0000    0.0000    0.0000 C   0  0  0  0  0  0  0  0  0  0  0  0
    0.0000    0.0000    0.0000 C   0  0  0  0  0  0  0  0  0  0  0  0
    0.0000    0.0000    0.0000 F   0  0  0  0  0  0  0  0  0  0  0  0
    0.0000    0.0000    0.0000 C   0  0  0  0  0  0  0  0  0  0  0  0
    0.0000    0.0000    0.0000 C   0  0  0  0  0  0  0  0  0  0  0  0
    0.0000    0.0000    0.0000 C   0  0  0  0  0  0  0  0  0  0  0  0
  1  2  1  0
  2  3  1  0
  3  4  1  0
  4  5  1  0
  5  6  1  0
  6  7  2  0
  7  8  1  0
  8  9  1  0
  9 10  1  0
 10 11  2  0
 10 12  1  0
 12 13  1  0
 13 14  2  0
 13 15  1  0
 15 16  1  0
 15 17  1  0
 17 18  1  0
 18 19  2  0
  6 20  1  0
 20 21  2  0
 21 22  1  0
 22 23  2  0
 23 24  1  0
 23 25  1  0
 25 26  2  0
 26 27  1  0
 19  5  1  0
 19  8  1  0
 17  9  2  0
 26 20  1  0
M  END
>  <pIC50>  (577) 
5.89

>  <ChEMBL_ID>  (577) 
CHEMBL2333595

>  <document_journal>  (577) 
J. Med. Chem.

>  <bao_endpoint>  (577) 
BAO_0000190

>  <potential_duplicate>  (577) 
False

>  <uo_units>  (577) 
UO_0000065

>  <canonical_smiles>  (577) 
CCCCn1c(cn2c3C(=O)NC(=O)N(C)c3nc12)c4ccc(F)cc4C

>  <parent_molecule_chembl_id>  (577) 
CHEMBL2333595

>  <assay_type>  (577) 
B

>  <src_id>  (577) 
1

>  <ligand_efficiency>  (577) 
{u'le': u'0.3', u'bei': u'15.95', u'sei': u'8.22', u'lle': u'2.21'}

>  <standard_flag>  (577) 
True

>  <molecule_chembl_id>  (577) 
CHEMBL2333595

>  <target_organism>  (577) 
Homo sapiens

>  <standard_units>  (577) 
nM

>  <record_id>  (577) 
1867644

>  <document_chembl_id>  (577) 
CHEMBL2331203

>  <bao_format>  (577) 
BAO_0000357

>  <data_validity_description>  (577) 
None

>  <activity_id>  (577) 
12674244

>  <standard_type>  (577) 
IC50

>  <target_chembl_id>  (577) 
CHEMBL1862

>  <data_validity_comment>  (577) 
None

>  <published_value>  (577) 
1282

>  <document_year>  (577) 
2013

>  <target_pref_name>  (577) 
Tyrosine-protein kinase ABL

>  <assay_chembl_id>  (577) 
CHEMBL2344636

>  <standard_relation>  (577) 
=

>  <assay_description>  (577) 
Inhibition of Abl (unknown origin) using [gamma-33P]ATP after 30 mins by radiometric assay

>  <published_relation>  (577) 
=

>  <standard_value>  (577) 
1282

>  <qudt_units>  (577) 
http://www.openphacts.org/units/Nanomolar

>  <target_tax_id>  (577) 
9606

>  <bao_label>  (577) 
single protein format

>  <published_units>  (577) 
nM

>  <pchembl_value>  (577) 
5.89

>  <published_type>  (577) 
IC50

>  <activity_comment>  (577) 
None

$$$$

     RDKit          

 31 35  0  0  0  0  0  0  0  0999 V2000
    0.0000    0.0000    0.0000 C   0  0  0  0  0  0  0  0  0  0  0  0
    0.0000    0.0000    0.0000 O   0  0  0  0  0  0  0  0  0  0  0  0
    0.0000    0.0000    0.0000 C   0  0  0  0  0  0  0  0  0  0  0  0
    0.0000    0.0000    0.0000 C   0  0  0  0  0  0  0  0  0  0  0  0
    0.0000    0.0000    0.0000 C   0  0  0  0  0  0  0  0  0  0  0  0
    0.0000    0.0000    0.0000 C   0  0  0  0  0  0  0  0  0  0  0  0
    0.0000    0.0000    0.0000 C   0  0  0  0  0  0  0  0  0  0  0  0
    0.0000    0.0000    0.0000 C   0  0  0  0  0  0  0  0  0  0  0  0
    0.0000    0.0000    0.0000 N   0  0  0  0  0  0  0  0  0  0  0  0
    0.0000    0.0000    0.0000 C   0  0  0  0  0  0  0  0  0  0  0  0
    0.0000    0.0000    0.0000 C   0  0  0  0  0  0  0  0  0  0  0  0
    0.0000    0.0000    0.0000 N   0  0  0  0  0  0  0  0  0  0  0  0
    0.0000    0.0000    0.0000 C   0  0  0  0  0  0  0  0  0  0  0  0
    0.0000    0.0000    0.0000 C   0  0  0  0  0  0  0  0  0  0  0  0
    0.0000    0.0000    0.0000 O   0  0  0  0  0  0  0  0  0  0  0  0
    0.0000    0.0000    0.0000 N   0  0  0  0  0  0  0  0  0  0  0  0
    0.0000    0.0000    0.0000 C   0  0  0  0  0  0  0  0  0  0  0  0
    0.0000    0.0000    0.0000 O   0  0  0  0  0  0  0  0  0  0  0  0
    0.0000    0.0000    0.0000 N   0  0  0  0  0  0  0  0  0  0  0  0
    0.0000    0.0000    0.0000 C   0  0  0  0  0  0  0  0  0  0  0  0
    0.0000    0.0000    0.0000 C   0  0  0  0  0  0  0  0  0  0  0  0
    0.0000    0.0000    0.0000 N   0  0  0  0  0  0  0  0  0  0  0  0
    0.0000    0.0000    0.0000 C   0  0  0  0  0  0  0  0  0  0  0  0
    0.0000    0.0000    0.0000 C   0  0  0  0  0  0  0  0  0  0  0  0
    0.0000    0.0000    0.0000 C   0  0  0  0  0  0  0  0  0  0  0  0
    0.0000    0.0000    0.0000 C   0  0  0  0  0  0  0  0  0  0  0  0
    0.0000    0.0000    0.0000 O   0  0  0  0  0  0  0  0  0  0  0  0
    0.0000    0.0000    0.0000 C   0  0  0  0  0  0  0  0  0  0  0  0
    0.0000    0.0000    0.0000 C   0  0  0  0  0  0  0  0  0  0  0  0
    0.0000    0.0000    0.0000 C   0  0  0  0  0  0  0  0  0  0  0  0
    0.0000    0.0000    0.0000 C   0  0  0  0  0  0  0  0  0  0  0  0
  1  2  1  0
  2  3  1  0
  3  4  2  0
  4  5  1  0
  5  6  2  0
  6  7  1  0
  7  8  2  0
  8  9  1  0
  9 10  1  0
 10 11  2  0
 11 12  1  0
 12 13  1  0
 13 14  1  0
 14 15  2  0
 14 16  1  0
 16 17  1  0
 17 18  2  0
 17 19  1  0
 19 20  1  0
 19 21  1  0
 21 22  1  0
 22 23  2  0
 10 24  1  0
 24 25  2  0
 25 26  1  0
 26 27  1  0
 26 28  2  0
 28 29  1  0
 29 30  2  0
 30 31  1  0
  8  3  1  0
 23  9  1  0
 23 12  1  0
 21 13  2  0
 30 24  1  0
M  END
>  <pIC50>  (578) 
9.04

>  <ChEMBL_ID>  (578) 
CHEMBL566515

>  <document_journal>  (578) 
J. Med. Chem.

>  <bao_endpoint>  (578) 
BAO_0000190

>  <potential_duplicate>  (578) 
False

>  <uo_units>  (578) 
UO_0000065

>  <canonical_smiles>  (578) 
COc1ccccc1n2c(cn3c4C(=O)NC(=O)N(C)c4nc23)c5cc(O)ccc5C

>  <parent_molecule_chembl_id>  (578) 
CHEMBL566515

>  <assay_type>  (578) 
B

>  <src_id>  (578) 
1

>  <ligand_efficiency>  (578) 
{u'le': u'0.4', u'bei': u'21.65', u'sei': u'8.94', u'lle': u'5.58'}

>  <standard_flag>  (578) 
True

>  <molecule_chembl_id>  (578) 
CHEMBL566515

>  <target_organism>  (578) 
Homo sapiens

>  <standard_units>  (578) 
nM

>  <record_id>  (578) 
1867654

>  <document_chembl_id>  (578) 
CHEMBL2331203

>  <bao_format>  (578) 
BAO_0000357

>  <data_validity_description>  (578) 
None

>  <activity_id>  (578) 
12674250

>  <standard_type>  (578) 
IC50

>  <target_chembl_id>  (578) 
CHEMBL1862

>  <data_validity_comment>  (578) 
None

>  <published_value>  (578) 
0.92

>  <document_year>  (578) 
2013

>  <target_pref_name>  (578) 
Tyrosine-protein kinase ABL

>  <assay_chembl_id>  (578) 
CHEMBL2344636

>  <standard_relation>  (578) 
=

>  <assay_description>  (578) 
Inhibition of Abl (unknown origin) using [gamma-33P]ATP after 30 mins by radiometric assay

>  <published_relation>  (578) 
=

>  <standard_value>  (578) 
0.92

>  <qudt_units>  (578) 
http://www.openphacts.org/units/Nanomolar

>  <target_tax_id>  (578) 
9606

>  <bao_label>  (578) 
single protein format

>  <published_units>  (578) 
nM

>  <pchembl_value>  (578) 
9.04

>  <published_type>  (578) 
IC50

>  <activity_comment>  (578) 
None

$$$$

     RDKit          

 26 29  0  0  0  0  0  0  0  0999 V2000
    0.0000    0.0000    0.0000 C   0  0  0  0  0  0  0  0  0  0  0  0
    0.0000    0.0000    0.0000 C   0  0  0  0  0  0  0  0  0  0  0  0
    0.0000    0.0000    0.0000 C   0  0  0  0  0  0  0  0  0  0  0  0
    0.0000    0.0000    0.0000 C   0  0  0  0  0  0  0  0  0  0  0  0
    0.0000    0.0000    0.0000 N   0  0  0  0  0  0  0  0  0  0  0  0
    0.0000    0.0000    0.0000 C   0  0  0  0  0  0  0  0  0  0  0  0
    0.0000    0.0000    0.0000 C   0  0  0  0  0  0  0  0  0  0  0  0
    0.0000    0.0000    0.0000 N   0  0  0  0  0  0  0  0  0  0  0  0
    0.0000    0.0000    0.0000 C   0  0  0  0  0  0  0  0  0  0  0  0
    0.0000    0.0000    0.0000 C   0  0  0  0  0  0  0  0  0  0  0  0
    0.0000    0.0000    0.0000 O   0  0  0  0  0  0  0  0  0  0  0  0
    0.0000    0.0000    0.0000 N   0  0  0  0  0  0  0  0  0  0  0  0
    0.0000    0.0000    0.0000 C   0  0  0  0  0  0  0  0  0  0  0  0
    0.0000    0.0000    0.0000 O   0  0  0  0  0  0  0  0  0  0  0  0
    0.0000    0.0000    0.0000 N   0  0  0  0  0  0  0  0  0  0  0  0
    0.0000    0.0000    0.0000 C   0  0  0  0  0  0  0  0  0  0  0  0
    0.0000    0.0000    0.0000 C   0  0  0  0  0  0  0  0  0  0  0  0
    0.0000    0.0000    0.0000 N   0  0  0  0  0  0  0  0  0  0  0  0
    0.0000    0.0000    0.0000 C   0  0  0  0  0  0  0  0  0  0  0  0
    0.0000    0.0000    0.0000 C   0  0  0  0  0  0  0  0  0  0  0  0
    0.0000    0.0000    0.0000 C   0  0  0  0  0  0  0  0  0  0  0  0
    0.0000    0.0000    0.0000 C   0  0  0  0  0  0  0  0  0  0  0  0
    0.0000    0.0000    0.0000 C   0  0  0  0  0  0  0  0  0  0  0  0
    0.0000    0.0000    0.0000 C   0  0  0  0  0  0  0  0  0  0  0  0
    0.0000    0.0000    0.0000 C   0  0  0  0  0  0  0  0  0  0  0  0
    0.0000    0.0000    0.0000 C   0  0  0  0  0  0  0  0  0  0  0  0
  1  2  1  0
  2  3  1  0
  3  4  1  0
  4  5  1  0
  5  6  1  0
  6  7  2  0
  7  8  1  0
  8  9  1  0
  9 10  1  0
 10 11  2  0
 10 12  1  0
 12 13  1  0
 13 14  2  0
 13 15  1  0
 15 16  1  0
 15 17  1  0
 17 18  1  0
 18 19  2  0
  6 20  1  0
 20 21  2  0
 21 22  1  0
 22 23  2  0
 23 24  1  0
 24 25  2  0
 25 26  1  0
 19  5  1  0
 19  8  1  0
 17  9  2  0
 25 20  1  0
M  END
>  <pIC50>  (579) 
6.24

>  <ChEMBL_ID>  (579) 
CHEMBL2333603

>  <document_journal>  (579) 
J. Med. Chem.

>  <bao_endpoint>  (579) 
BAO_0000190

>  <potential_duplicate>  (579) 
False

>  <uo_units>  (579) 
UO_0000065

>  <canonical_smiles>  (579) 
CCCCn1c(cn2c3C(=O)NC(=O)N(C)c3nc12)c4ccccc4C

>  <parent_molecule_chembl_id>  (579) 
CHEMBL2333603

>  <assay_type>  (579) 
B

>  <src_id>  (579) 
1

>  <ligand_efficiency>  (579) 
{u'le': u'0.33', u'bei': u'17.75', u'sei': u'8.71', u'lle': u'2.77'}

>  <standard_flag>  (579) 
True

>  <molecule_chembl_id>  (579) 
CHEMBL2333603

>  <target_organism>  (579) 
Homo sapiens

>  <standard_units>  (579) 
nM

>  <record_id>  (579) 
1867655

>  <document_chembl_id>  (579) 
CHEMBL2331203

>  <bao_format>  (579) 
BAO_0000357

>  <data_validity_description>  (579) 
None

>  <activity_id>  (579) 
12674251

>  <standard_type>  (579) 
IC50

>  <target_chembl_id>  (579) 
CHEMBL1862

>  <data_validity_comment>  (579) 
None

>  <published_value>  (579) 
578

>  <document_year>  (579) 
2013

>  <target_pref_name>  (579) 
Tyrosine-protein kinase ABL

>  <assay_chembl_id>  (579) 
CHEMBL2344636

>  <standard_relation>  (579) 
=

>  <assay_description>  (579) 
Inhibition of Abl (unknown origin) using [gamma-33P]ATP after 30 mins by radiometric assay

>  <published_relation>  (579) 
=

>  <standard_value>  (579) 
578

>  <qudt_units>  (579) 
http://www.openphacts.org/units/Nanomolar

>  <target_tax_id>  (579) 
9606

>  <bao_label>  (579) 
single protein format

>  <published_units>  (579) 
nM

>  <pchembl_value>  (579) 
6.24

>  <published_type>  (579) 
IC50

>  <activity_comment>  (579) 
None

$$$$

     RDKit          

 25 28  0  0  0  0  0  0  0  0999 V2000
    0.0000    0.0000    0.0000 O   0  0  0  0  0  0  0  0  0  0  0  0
    0.0000    0.0000    0.0000 N   0  0  0  0  0  0  0  0  0  0  0  0
    0.0000    0.0000    0.0000 O   0  0  0  0  0  0  0  0  0  0  0  0
    0.0000    0.0000    0.0000 C   0  0  0  0  0  0  0  0  0  0  0  0
    0.0000    0.0000    0.0000 C   0  0  0  0  0  0  0  0  0  0  0  0
    0.0000    0.0000    0.0000 C   0  0  0  0  0  0  0  0  0  0  0  0
    0.0000    0.0000    0.0000 C   0  0  0  0  0  0  0  0  0  0  0  0
    0.0000    0.0000    0.0000 C   0  0  0  0  0  0  0  0  0  0  0  0
    0.0000    0.0000    0.0000 C   0  0  0  0  0  0  0  0  0  0  0  0
    0.0000    0.0000    0.0000 C   0  0  0  0  0  0  0  0  0  0  0  0
    0.0000    0.0000    0.0000 N   0  0  0  0  0  0  0  0  0  0  0  0
    0.0000    0.0000    0.0000 N   0  0  0  0  0  0  0  0  0  0  0  0
    0.0000    0.0000    0.0000 C   0  0  0  0  0  0  0  0  0  0  0  0
    0.0000    0.0000    0.0000 C   0  0  0  0  0  0  0  0  0  0  0  0
    0.0000    0.0000    0.0000 C   0  0  0  0  0  0  0  0  0  0  0  0
    0.0000    0.0000    0.0000 C   0  0  0  0  0  0  0  0  0  0  0  0
    0.0000    0.0000    0.0000 C   0  0  0  0  0  0  0  0  0  0  0  0
    0.0000    0.0000    0.0000 O   0  0  0  0  0  0  0  0  0  0  0  0
    0.0000    0.0000    0.0000 N   0  0  0  0  0  0  0  0  0  0  0  0
    0.0000    0.0000    0.0000 C   0  0  0  0  0  0  0  0  0  0  0  0
    0.0000    0.0000    0.0000 C   0  0  0  0  0  0  0  0  0  0  0  0
    0.0000    0.0000    0.0000 C   0  0  0  0  0  0  0  0  0  0  0  0
    0.0000    0.0000    0.0000 C   0  0  0  0  0  0  0  0  0  0  0  0
    0.0000    0.0000    0.0000 C   0  0  0  0  0  0  0  0  0  0  0  0
    0.0000    0.0000    0.0000 C   0  0  0  0  0  0  0  0  0  0  0  0
  1  2  1  0
  2  3  2  0
  2  4  1  0
  4  5  2  0
  5  6  1  0
  6  7  2  0
  7  8  1  0
  8  9  2  0
  9 10  1  0
 10 11  2  0
 11 12  1  0
 12 13  1  0
 13 14  2  0
 14 15  1  0
 15 16  2  0
 16 17  1  0
 17 18  2  0
 17 19  1  0
 19 20  1  0
 20 21  2  0
 21 22  1  0
 22 23  2  0
 23 24  1  0
 24 25  2  0
  9  4  1  0
 14 10  1  0
 16 25  1  0
 25 20  1  0
M  CHG  2   1  -1   2   1
M  END
>  <pIC50>  (580) 
6.57

>  <ChEMBL_ID>  (580) 
CHEMBL2347053

>  <document_journal>  (580) 
Bioorg. Med. Chem.

>  <bao_endpoint>  (580) 
BAO_0000190

>  <potential_duplicate>  (580) 
False

>  <uo_units>  (580) 
UO_0000065

>  <canonical_smiles>  (580) 
[O-][N+](=O)c1ccccc1c2n[nH]cc2\C=C\3/C(=O)Nc4ccccc34

>  <parent_molecule_chembl_id>  (580) 
CHEMBL2347053

>  <assay_type>  (580) 
B

>  <src_id>  (580) 
1

>  <ligand_efficiency>  (580) 
{u'le': u'0.36', u'bei': u'19.76', u'sei': u'6.34', u'lle': u'3.55'}

>  <standard_flag>  (580) 
True

>  <molecule_chembl_id>  (580) 
CHEMBL2347053

>  <target_organism>  (580) 
Homo sapiens

>  <standard_units>  (580) 
nM

>  <record_id>  (580) 
1874786

>  <document_chembl_id>  (580) 
CHEMBL2346519

>  <bao_format>  (580) 
BAO_0000357

>  <data_validity_description>  (580) 
None

>  <activity_id>  (580) 
12718785

>  <standard_type>  (580) 
IC50

>  <target_chembl_id>  (580) 
CHEMBL1862

>  <data_validity_comment>  (580) 
None

>  <published_value>  (580) 
271

>  <document_year>  (580) 
2013

>  <target_pref_name>  (580) 
Tyrosine-protein kinase ABL

>  <assay_chembl_id>  (580) 
CHEMBL2350667

>  <standard_relation>  (580) 
=

>  <assay_description>  (580) 
Inhibition of ABL (unknown origin) after 10 mins by mobility shift assay

>  <published_relation>  (580) 
=

>  <standard_value>  (580) 
271

>  <qudt_units>  (580) 
http://www.openphacts.org/units/Nanomolar

>  <target_tax_id>  (580) 
9606

>  <bao_label>  (580) 
single protein format

>  <published_units>  (580) 
nM

>  <pchembl_value>  (580) 
6.57

>  <published_type>  (580) 
IC50

>  <activity_comment>  (580) 
None

$$$$

     RDKit          

 35 38  0  0  0  0  0  0  0  0999 V2000
    0.0000    0.0000    0.0000 C   0  0  0  0  0  0  0  0  0  0  0  0
    0.0000    0.0000    0.0000 C   0  0  0  0  0  0  0  0  0  0  0  0
    0.0000    0.0000    0.0000 O   0  0  0  0  0  0  0  0  0  0  0  0
    0.0000    0.0000    0.0000 C   0  0  0  0  0  0  0  0  0  0  0  0
    0.0000    0.0000    0.0000 C   0  0  0  0  0  0  0  0  0  0  0  0
    0.0000    0.0000    0.0000 N   0  0  0  0  0  0  0  0  0  0  0  0
    0.0000    0.0000    0.0000 C   0  0  0  0  0  0  0  0  0  0  0  0
    0.0000    0.0000    0.0000 O   0  0  0  0  0  0  0  0  0  0  0  0
    0.0000    0.0000    0.0000 C   0  0  0  0  0  0  0  0  0  0  0  0
    0.0000    0.0000    0.0000 C   0  0  0  0  0  0  0  0  0  0  0  0
    0.0000    0.0000    0.0000 C   0  0  0  0  0  0  0  0  0  0  0  0
    0.0000    0.0000    0.0000 O   0  0  0  0  0  0  0  0  0  0  0  0
    0.0000    0.0000    0.0000 N   0  0  0  0  0  0  0  0  0  0  0  0
    0.0000    0.0000    0.0000 C   0  0  0  0  0  0  0  0  0  0  0  0
    0.0000    0.0000    0.0000 C   0  0  0  0  0  0  0  0  0  0  0  0
    0.0000    0.0000    0.0000 C   0  0  0  0  0  0  0  0  0  0  0  0
    0.0000    0.0000    0.0000 C   0  0  0  0  0  0  0  0  0  0  0  0
    0.0000    0.0000    0.0000 C   0  0  0  0  0  0  0  0  0  0  0  0
    0.0000    0.0000    0.0000 C   0  0  0  0  0  0  0  0  0  0  0  0
    0.0000    0.0000    0.0000 N   0  0  0  0  0  0  0  0  0  0  0  0
    0.0000    0.0000    0.0000 C   0  0  0  0  0  0  0  0  0  0  0  0
    0.0000    0.0000    0.0000 C   0  0  0  0  0  0  0  0  0  0  0  0
    0.0000    0.0000    0.0000 N   0  0  0  0  0  0  0  0  0  0  0  0
    0.0000    0.0000    0.0000 C   0  0  0  0  0  0  0  0  0  0  0  0
    0.0000    0.0000    0.0000 C   0  0  0  0  0  0  0  0  0  0  0  0
    0.0000    0.0000    0.0000 C   0  0  0  0  0  0  0  0  0  0  0  0
    0.0000    0.0000    0.0000 C   0  0  0  0  0  0  0  0  0  0  0  0
    0.0000    0.0000    0.0000 C   0  0  0  0  0  0  0  0  0  0  0  0
    0.0000    0.0000    0.0000 Cl  0  0  0  0  0  0  0  0  0  0  0  0
    0.0000    0.0000    0.0000 C   0  0  0  0  0  0  0  0  0  0  0  0
    0.0000    0.0000    0.0000 C   0  0  0  0  0  0  0  0  0  0  0  0
    0.0000    0.0000    0.0000 C   0  0  0  0  0  0  0  0  0  0  0  0
    0.0000    0.0000    0.0000 F   0  0  0  0  0  0  0  0  0  0  0  0
    0.0000    0.0000    0.0000 C   0  0  0  0  0  0  0  0  0  0  0  0
    0.0000    0.0000    0.0000 Cl  0  0  0  0  0  0  0  0  0  0  0  0
  1  2  1  0
  2  3  1  0
  3  4  1  0
  4  5  2  0
  5  6  1  0
  6  7  1  0
  7  8  2  0
  7  9  1  0
  9 10  2  0
  9 11  1  0
 11 12  2  0
 11 13  1  0
 13 14  1  0
 14 15  2  0
 15 16  1  0
 16 17  2  0
 17 18  1  0
 18 19  2  0
 17 20  1  0
 20 21  1  0
 21 22  1  0
 22 23  1  0
 23 24  1  0
 23 25  1  0
 25 26  1  0
  2 27  1  0
 27 28  2  0
 28 29  1  0
 28 30  1  0
 30 31  2  0
 31 32  1  0
 32 33  1  0
 32 34  2  0
 34 35  1  0
 10  4  1  0
 19 14  1  0
 26 20  1  0
 34 27  1  0
M  END
>  <pIC50>  (581) 
6.55

>  <ChEMBL_ID>  (581) 
CHEMBL2376650

>  <document_journal>  (581) 
Bioorg. Med. Chem. Lett.

>  <bao_endpoint>  (581) 
BAO_0000190

>  <potential_duplicate>  (581) 
False

>  <uo_units>  (581) 
UO_0000065

>  <canonical_smiles>  (581) 
C[C@@H](OC1=CNC(=O)C(=C1)C(=O)Nc2ccc(cc2)N3CCN(C)CC3)c4c(Cl)ccc(F)c4Cl

>  <parent_molecule_chembl_id>  (581) 
CHEMBL2376650

>  <assay_type>  (581) 
B

>  <src_id>  (581) 
1

>  <ligand_efficiency>  (581) 
{u'le': u'0.26', u'bei': u'12.61', u'sei': u'8.86', u'lle': u'2.83'}

>  <standard_flag>  (581) 
True

>  <molecule_chembl_id>  (581) 
CHEMBL2376650

>  <target_organism>  (581) 
Homo sapiens

>  <standard_units>  (581) 
nM

>  <record_id>  (581) 
1891219

>  <document_chembl_id>  (581) 
CHEMBL2375342

>  <bao_format>  (581) 
BAO_0000357

>  <data_validity_description>  (581) 
None

>  <activity_id>  (581) 
13293020

>  <standard_type>  (581) 
IC50

>  <target_chembl_id>  (581) 
CHEMBL1862

>  <data_validity_comment>  (581) 
None

>  <published_value>  (581) 
281

>  <document_year>  (581) 
2013

>  <target_pref_name>  (581) 
Tyrosine-protein kinase ABL

>  <assay_chembl_id>  (581) 
CHEMBL2379877

>  <standard_relation>  (581) 
=

>  <assay_description>  (581) 
Inhibition of ABL (unknown origin)

>  <published_relation>  (581) 
=

>  <standard_value>  (581) 
281

>  <qudt_units>  (581) 
http://www.openphacts.org/units/Nanomolar

>  <target_tax_id>  (581) 
9606

>  <bao_label>  (581) 
single protein format

>  <published_units>  (581) 
nM

>  <pchembl_value>  (581) 
6.55

>  <published_type>  (581) 
IC50

>  <activity_comment>  (581) 
None

$$$$

     RDKit          

125135  0  0  0  0  0  0  0  0999 V2000
    0.0000    0.0000    0.0000 N   0  0  0  0  0  0  0  0  0  0  0  0
    0.0000    0.0000    0.0000 C   0  0  0  0  0  0  0  0  0  0  0  0
    0.0000    0.0000    0.0000 N   0  0  0  0  0  0  0  0  0  0  0  0
    0.0000    0.0000    0.0000 N   0  0  0  0  0  0  0  0  0  0  0  0
    0.0000    0.0000    0.0000 C   0  0  0  0  0  0  0  0  0  0  0  0
    0.0000    0.0000    0.0000 C   0  0  0  0  0  0  0  0  0  0  0  0
    0.0000    0.0000    0.0000 C   0  0  0  0  0  0  0  0  0  0  0  0
    0.0000    0.0000    0.0000 C   0  0  0  0  0  0  0  0  0  0  0  0
    0.0000    0.0000    0.0000 N   0  0  0  0  0  0  0  0  0  0  0  0
    0.0000    0.0000    0.0000 C   0  0  0  0  0  0  0  0  0  0  0  0
    0.0000    0.0000    0.0000 O   0  0  0  0  0  0  0  0  0  0  0  0
    0.0000    0.0000    0.0000 C   0  0  0  0  0  0  0  0  0  0  0  0
    0.0000    0.0000    0.0000 C   0  0  0  0  0  0  0  0  0  0  0  0
    0.0000    0.0000    0.0000 C   0  0  0  0  0  0  0  0  0  0  0  0
    0.0000    0.0000    0.0000 C   0  0  0  0  0  0  0  0  0  0  0  0
    0.0000    0.0000    0.0000 N   0  0  0  0  0  0  0  0  0  0  0  0
    0.0000    0.0000    0.0000 C   0  0  0  0  0  0  0  0  0  0  0  0
    0.0000    0.0000    0.0000 C   0  0  0  0  0  0  0  0  0  0  0  0
    0.0000    0.0000    0.0000 C   0  0  0  0  0  0  0  0  0  0  0  0
    0.0000    0.0000    0.0000 C   0  0  0  0  0  0  0  0  0  0  0  0
    0.0000    0.0000    0.0000 C   0  0  0  0  0  0  0  0  0  0  0  0
    0.0000    0.0000    0.0000 C   0  0  0  0  0  0  0  0  0  0  0  0
    0.0000    0.0000    0.0000 N   0  0  0  0  0  0  0  0  0  0  0  0
    0.0000    0.0000    0.0000 C   0  0  0  0  0  0  0  0  0  0  0  0
    0.0000    0.0000    0.0000 O   0  0  0  0  0  0  0  0  0  0  0  0
    0.0000    0.0000    0.0000 C   0  0  0  0  0  0  0  0  0  0  0  0
    0.0000    0.0000    0.0000 C   0  0  0  0  0  0  0  0  0  0  0  0
    0.0000    0.0000    0.0000 C   0  0  0  0  0  0  0  0  0  0  0  0
    0.0000    0.0000    0.0000 C   0  0  0  0  0  0  0  0  0  0  0  0
    0.0000    0.0000    0.0000 N   0  0  0  0  0  0  0  0  0  0  0  0
    0.0000    0.0000    0.0000 C   0  0  0  0  0  0  0  0  0  0  0  0
    0.0000    0.0000    0.0000 N   0  0  0  0  0  0  0  0  0  0  0  0
    0.0000    0.0000    0.0000 N   0  0  0  0  0  0  0  0  0  0  0  0
    0.0000    0.0000    0.0000 N   0  0  0  0  0  0  0  0  0  0  0  0
    0.0000    0.0000    0.0000 C   0  0  0  0  0  0  0  0  0  0  0  0
    0.0000    0.0000    0.0000 O   0  0  0  0  0  0  0  0  0  0  0  0
    0.0000    0.0000    0.0000 C   0  0  0  0  0  0  0  0  0  0  0  0
    0.0000    0.0000    0.0000 C   0  0  0  0  0  0  0  0  0  0  0  0
    0.0000    0.0000    0.0000 C   0  0  0  0  0  0  0  0  0  0  0  0
    0.0000    0.0000    0.0000 C   0  0  0  0  0  0  0  0  0  0  0  0
    0.0000    0.0000    0.0000 N   0  0  0  0  0  0  0  0  0  0  0  0
    0.0000    0.0000    0.0000 C   0  0  0  0  0  0  0  0  0  0  0  0
    0.0000    0.0000    0.0000 C   0  0  0  0  0  0  0  0  0  0  0  0
    0.0000    0.0000    0.0000 C   0  0  0  0  0  0  0  0  0  0  0  0
    0.0000    0.0000    0.0000 C   0  0  0  0  0  0  0  0  0  0  0  0
    0.0000    0.0000    0.0000 C   0  0  0  0  0  0  0  0  0  0  0  0
    0.0000    0.0000    0.0000 C   0  0  0  0  0  0  0  0  0  0  0  0
    0.0000    0.0000    0.0000 N   0  0  0  0  0  0  0  0  0  0  0  0
    0.0000    0.0000    0.0000 C   0  0  0  0  0  0  0  0  0  0  0  0
    0.0000    0.0000    0.0000 O   0  0  0  0  0  0  0  0  0  0  0  0
    0.0000    0.0000    0.0000 C   0  0  0  0  0  0  0  0  0  0  0  0
    0.0000    0.0000    0.0000 C   0  0  0  0  0  0  0  0  0  0  0  0
    0.0000    0.0000    0.0000 C   0  0  0  0  0  0  0  0  0  0  0  0
    0.0000    0.0000    0.0000 C   0  0  0  0  0  0  0  0  0  0  0  0
    0.0000    0.0000    0.0000 N   0  0  0  0  0  0  0  0  0  0  0  0
    0.0000    0.0000    0.0000 C   0  0  0  0  0  0  0  0  0  0  0  0
    0.0000    0.0000    0.0000 N   0  0  0  0  0  0  0  0  0  0  0  0
    0.0000    0.0000    0.0000 N   0  0  0  0  0  0  0  0  0  0  0  0
    0.0000    0.0000    0.0000 N   0  0  0  0  0  0  0  0  0  0  0  0
    0.0000    0.0000    0.0000 C   0  0  0  0  0  0  0  0  0  0  0  0
    0.0000    0.0000    0.0000 O   0  0  0  0  0  0  0  0  0  0  0  0
    0.0000    0.0000    0.0000 C   0  0  0  0  0  0  0  0  0  0  0  0
    0.0000    0.0000    0.0000 C   0  0  0  0  0  0  0  0  0  0  0  0
    0.0000    0.0000    0.0000 C   0  0  0  0  0  0  0  0  0  0  0  0
    0.0000    0.0000    0.0000 C   0  0  0  0  0  0  0  0  0  0  0  0
    0.0000    0.0000    0.0000 N   0  0  0  0  0  0  0  0  0  0  0  0
    0.0000    0.0000    0.0000 C   0  0  0  0  0  0  0  0  0  0  0  0
    0.0000    0.0000    0.0000 C   0  0  0  0  0  0  0  0  0  0  0  0
    0.0000    0.0000    0.0000 C   0  0  0  0  0  0  0  0  0  0  0  0
    0.0000    0.0000    0.0000 C   0  0  0  0  0  0  0  0  0  0  0  0
    0.0000    0.0000    0.0000 C   0  0  0  0  0  0  0  0  0  0  0  0
    0.0000    0.0000    0.0000 C   0  0  0  0  0  0  0  0  0  0  0  0
    0.0000    0.0000    0.0000 N   0  0  0  0  0  0  0  0  0  0  0  0
    0.0000    0.0000    0.0000 C   0  0  0  0  0  0  0  0  0  0  0  0
    0.0000    0.0000    0.0000 O   0  0  0  0  0  0  0  0  0  0  0  0
    0.0000    0.0000    0.0000 C   0  0  0  0  0  0  0  0  0  0  0  0
    0.0000    0.0000    0.0000 C   0  0  0  0  0  0  0  0  0  0  0  0
    0.0000    0.0000    0.0000 C   0  0  0  0  0  0  0  0  0  0  0  0
    0.0000    0.0000    0.0000 C   0  0  0  0  0  0  0  0  0  0  0  0
    0.0000    0.0000    0.0000 N   0  0  0  0  0  0  0  0  0  0  0  0
    0.0000    0.0000    0.0000 C   0  0  0  0  0  0  0  0  0  0  0  0
    0.0000    0.0000    0.0000 N   0  0  0  0  0  0  0  0  0  0  0  0
    0.0000    0.0000    0.0000 N   0  0  0  0  0  0  0  0  0  0  0  0
    0.0000    0.0000    0.0000 N   0  0  0  0  0  0  0  0  0  0  0  0
    0.0000    0.0000    0.0000 C   0  0  0  0  0  0  0  0  0  0  0  0
    0.0000    0.0000    0.0000 O   0  0  0  0  0  0  0  0  0  0  0  0
    0.0000    0.0000    0.0000 C   0  0  0  0  0  0  0  0  0  0  0  0
    0.0000    0.0000    0.0000 C   0  0  0  0  0  0  0  0  0  0  0  0
    0.0000    0.0000    0.0000 C   0  0  0  0  0  0  0  0  0  0  0  0
    0.0000    0.0000    0.0000 C   0  0  0  0  0  0  0  0  0  0  0  0
    0.0000    0.0000    0.0000 N   0  0  0  0  0  0  0  0  0  0  0  0
    0.0000    0.0000    0.0000 C   0  0  0  0  0  0  0  0  0  0  0  0
    0.0000    0.0000    0.0000 C   0  0  0  0  0  0  0  0  0  0  0  0
    0.0000    0.0000    0.0000 C   0  0  0  0  0  0  0  0  0  0  0  0
    0.0000    0.0000    0.0000 C   0  0  0  0  0  0  0  0  0  0  0  0
    0.0000    0.0000    0.0000 C   0  0  0  0  0  0  0  0  0  0  0  0
    0.0000    0.0000    0.0000 C   0  0  0  0  0  0  0  0  0  0  0  0
    0.0000    0.0000    0.0000 N   0  0  0  0  0  0  0  0  0  0  0  0
    0.0000    0.0000    0.0000 C   0  0  0  0  0  0  0  0  0  0  0  0
    0.0000    0.0000    0.0000 O   0  0  0  0  0  0  0  0  0  0  0  0
    0.0000    0.0000    0.0000 C   0  0  0  0  0  0  0  0  0  0  0  0
    0.0000    0.0000    0.0000 C   0  0  0  0  0  0  0  0  0  0  0  0
    0.0000    0.0000    0.0000 C   0  0  0  0  0  0  0  0  0  0  0  0
    0.0000    0.0000    0.0000 C   0  0  0  0  0  0  0  0  0  0  0  0
    0.0000    0.0000    0.0000 N   0  0  0  0  0  0  0  0  0  0  0  0
    0.0000    0.0000    0.0000 C   0  0  0  0  0  0  0  0  0  0  0  0
    0.0000    0.0000    0.0000 N   0  0  0  0  0  0  0  0  0  0  0  0
    0.0000    0.0000    0.0000 N   0  0  0  0  0  0  0  0  0  0  0  0
    0.0000    0.0000    0.0000 N   0  0  0  0  0  0  0  0  0  0  0  0
    0.0000    0.0000    0.0000 C   0  0  0  0  0  0  0  0  0  0  0  0
    0.0000    0.0000    0.0000 O   0  0  0  0  0  0  0  0  0  0  0  0
    0.0000    0.0000    0.0000 C   0  0  0  0  0  0  0  0  0  0  0  0
    0.0000    0.0000    0.0000 C   0  0  0  0  0  0  0  0  0  0  0  0
    0.0000    0.0000    0.0000 C   0  0  0  0  0  0  0  0  0  0  0  0
    0.0000    0.0000    0.0000 C   0  0  0  0  0  0  0  0  0  0  0  0
    0.0000    0.0000    0.0000 N   0  0  0  0  0  0  0  0  0  0  0  0
    0.0000    0.0000    0.0000 C   0  0  0  0  0  0  0  0  0  0  0  0
    0.0000    0.0000    0.0000 C   0  0  0  0  0  0  0  0  0  0  0  0
    0.0000    0.0000    0.0000 C   0  0  0  0  0  0  0  0  0  0  0  0
    0.0000    0.0000    0.0000 C   0  0  0  0  0  0  0  0  0  0  0  0
    0.0000    0.0000    0.0000 C   0  0  0  0  0  0  0  0  0  0  0  0
    0.0000    0.0000    0.0000 C   0  0  0  0  0  0  0  0  0  0  0  0
    0.0000    0.0000    0.0000 N   0  0  0  0  0  0  0  0  0  0  0  0
    0.0000    0.0000    0.0000 C   0  0  0  0  0  0  0  0  0  0  0  0
    0.0000    0.0000    0.0000 O   0  0  0  0  0  0  0  0  0  0  0  0
  1  2  1  0
  2  3  2  0
  2  4  1  0
  4  5  1  0
  5  6  1  0
  6  7  1  0
  7  8  1  0
  8  9  1  0
  9 10  1  0
 10 11  2  0
 10 12  1  0
 12 13  1  0
 13 14  1  0
 14 15  2  0
 15 16  1  0
 16 17  1  0
 17 18  2  0
 18 19  1  0
 19 20  2  0
 20 21  1  0
 21 22  2  0
 12 23  1  0
 23 24  1  0
 24 25  2  0
 24 26  1  0
 26 27  1  0
 27 28  1  0
 28 29  1  0
 29 30  1  0
 30 31  1  0
 31 32  2  0
 31 33  1  0
 26 34  1  0
 34 35  1  0
 35 36  2  0
 35 37  1  0
 37 38  1  0
 38 39  1  0
 39 40  2  0
 40 41  1  0
 41 42  1  0
 42 43  2  0
 43 44  1  0
 44 45  2  0
 45 46  1  0
 46 47  2  0
 37 48  1  0
 48 49  1  0
 49 50  2  0
 49 51  1  0
 51 52  1  0
 52 53  1  0
 53 54  1  0
 54 55  1  0
 55 56  1  0
 56 57  2  0
 56 58  1  0
 51 59  1  0
 59 60  1  0
 60 61  2  0
 60 62  1  0
 62 63  1  0
 63 64  1  0
 64 65  2  0
 65 66  1  0
 66 67  1  0
 67 68  2  0
 68 69  1  0
 69 70  2  0
 70 71  1  0
 71 72  2  0
 62 73  1  0
 73 74  1  0
 74 75  2  0
 74 76  1  0
 76 77  1  0
 77 78  1  0
 78 79  1  0
 79 80  1  0
 80 81  1  0
 81 82  2  0
 81 83  1  0
 76 84  1  0
 84 85  1  0
 85 86  2  0
 85 87  1  0
 87 88  1  0
 88 89  1  0
 89 90  2  0
 90 91  1  0
 91 92  1  0
 92 93  2  0
 93 94  1  0
 94 95  2  0
 95 96  1  0
 96 97  2  0
 87 98  1  0
 98 99  1  0
 99100  2  0
 99101  1  0
101102  1  0
102103  1  0
103104  1  0
104105  1  0
105106  1  0
106107  2  0
106108  1  0
101109  1  0
109110  1  0
110111  2  0
110112  1  0
112113  1  0
113114  1  0
114115  2  0
115116  1  0
116117  1  0
117118  2  0
118119  1  0
119120  2  0
120121  1  0
121122  2  0
112123  1  0
123124  1  0
124125  2  0
124  8  1  0
 22 14  1  0
 22 17  1  0
 47 39  1  0
 47 42  1  0
 72 64  1  0
 72 67  1  0
 97 89  1  0
 97 92  1  0
122114  1  0
122117  1  0
M  END
>  <pIC50>  (582) 
5.51

>  <ChEMBL_ID>  (582) 
CHEMBL2382016

>  <document_journal>  (582) 
Bioorg. Med. Chem. Lett.

>  <bao_endpoint>  (582) 
BAO_0000190

>  <potential_duplicate>  (582) 
False

>  <uo_units>  (582) 
UO_0000065

>  <canonical_smiles>  (582) 
NC(=N)NCCC[C@@H]1NC(=O)[C@H](Cc2c[nH]c3ccccc23)NC(=O)[C@H](CCCNC(=N)N)NC(=O)[C@H](Cc4c[nH]c5ccccc45)NC(=O)[C@H](CCCNC(=N)N)NC(=O)[C@H](Cc6c[nH]c7ccccc67)NC(=O)[C@H](CCCNC(=N)N)NC(=O)[C@H](Cc8c[nH]c9ccccc89)NC(=O)[C@H](CCCNC(=N)N)NC(=O)[C@H](Cc%10c[nH]c%11ccccc%10%11)NC1=O

>  <parent_molecule_chembl_id>  (582) 
CHEMBL2382016

>  <assay_type>  (582) 
B

>  <src_id>  (582) 
1

>  <ligand_efficiency>  (582) 
{u'le': None, u'bei': u'3.22', u'sei': None, u'lle': None}

>  <standard_flag>  (582) 
True

>  <molecule_chembl_id>  (582) 
CHEMBL2382016

>  <target_organism>  (582) 
Homo sapiens

>  <standard_units>  (582) 
nM

>  <record_id>  (582) 
1894717

>  <document_chembl_id>  (582) 
CHEMBL2380274

>  <bao_format>  (582) 
BAO_0000019

>  <data_validity_description>  (582) 
None

>  <activity_id>  (582) 
13302664

>  <standard_type>  (582) 
IC50

>  <target_chembl_id>  (582) 
CHEMBL1862

>  <data_validity_comment>  (582) 
None

>  <published_value>  (582) 
3.1

>  <document_year>  (582) 
2013

>  <target_pref_name>  (582) 
Tyrosine-protein kinase ABL

>  <assay_chembl_id>  (582) 
CHEMBL2382771

>  <standard_relation>  (582) 
=

>  <assay_description>  (582) 
Inhibition of GST-fused Abl (unknown origin) expressed in Escherichia coli using CrkL as substrate after 20 mins by scintillation counting analysis in presence of [gamma-32P]-ATP

>  <published_relation>  (582) 
=

>  <standard_value>  (582) 
3100

>  <qudt_units>  (582) 
http://www.openphacts.org/units/Nanomolar

>  <target_tax_id>  (582) 
9606

>  <bao_label>  (582) 
assay format

>  <published_units>  (582) 
uM

>  <pchembl_value>  (582) 
5.51

>  <published_type>  (582) 
IC50

>  <activity_comment>  (582) 
None

$$$$

     RDKit          

 38 41  0  0  0  0  0  0  0  0999 V2000
    0.0000    0.0000    0.0000 C   0  0  0  0  0  0  0  0  0  0  0  0
    0.0000    0.0000    0.0000 C   0  0  0  0  0  0  0  0  0  0  0  0
    0.0000    0.0000    0.0000 C   0  0  0  0  0  0  0  0  0  0  0  0
    0.0000    0.0000    0.0000 O   0  0  0  0  0  0  0  0  0  0  0  0
    0.0000    0.0000    0.0000 C   0  0  0  0  0  0  0  0  0  0  0  0
    0.0000    0.0000    0.0000 C   0  0  0  0  0  0  0  0  0  0  0  0
    0.0000    0.0000    0.0000 C   0  0  0  0  0  0  0  0  0  0  0  0
    0.0000    0.0000    0.0000 C   0  0  0  0  0  0  0  0  0  0  0  0
    0.0000    0.0000    0.0000 C   0  0  0  0  0  0  0  0  0  0  0  0
    0.0000    0.0000    0.0000 C   0  0  0  0  0  0  0  0  0  0  0  0
    0.0000    0.0000    0.0000 N   0  0  0  0  0  0  0  0  0  0  0  0
    0.0000    0.0000    0.0000 C   0  0  0  0  0  0  0  0  0  0  0  0
    0.0000    0.0000    0.0000 C   0  0  0  0  0  0  0  0  0  0  0  0
    0.0000    0.0000    0.0000 C   0  0  0  0  0  0  0  0  0  0  0  0
    0.0000    0.0000    0.0000 C   0  0  0  0  0  0  0  0  0  0  0  0
    0.0000    0.0000    0.0000 C   0  0  0  0  0  0  0  0  0  0  0  0
    0.0000    0.0000    0.0000 C   0  0  0  0  0  0  0  0  0  0  0  0
    0.0000    0.0000    0.0000 N   0  0  0  0  0  0  0  0  0  0  0  0
    0.0000    0.0000    0.0000 C   0  0  0  0  0  0  0  0  0  0  0  0
    0.0000    0.0000    0.0000 N   0  0  0  0  0  0  0  0  0  0  0  0
    0.0000    0.0000    0.0000 C   0  0  0  0  0  0  0  0  0  0  0  0
    0.0000    0.0000    0.0000 C   0  0  0  0  0  0  0  0  0  0  0  0
    0.0000    0.0000    0.0000 Cl  0  0  0  0  0  0  0  0  0  0  0  0
    0.0000    0.0000    0.0000 C   0  0  0  0  0  0  0  0  0  0  0  0
    0.0000    0.0000    0.0000 N   0  0  0  0  0  0  0  0  0  0  0  0
    0.0000    0.0000    0.0000 C   0  0  0  0  0  0  0  0  0  0  0  0
    0.0000    0.0000    0.0000 C   0  0  0  0  0  0  0  0  0  0  0  0
    0.0000    0.0000    0.0000 C   0  0  0  0  0  0  0  0  0  0  0  0
    0.0000    0.0000    0.0000 C   0  0  0  0  0  0  0  0  0  0  0  0
    0.0000    0.0000    0.0000 C   0  0  0  0  0  0  0  0  0  0  0  0
    0.0000    0.0000    0.0000 C   0  0  0  0  0  0  0  0  0  0  0  0
    0.0000    0.0000    0.0000 S   0  0  0  0  0  0  0  0  0  0  0  0
    0.0000    0.0000    0.0000 O   0  0  0  0  0  0  0  0  0  0  0  0
    0.0000    0.0000    0.0000 O   0  0  0  0  0  0  0  0  0  0  0  0
    0.0000    0.0000    0.0000 C   0  0  0  0  0  0  0  0  0  0  0  0
    0.0000    0.0000    0.0000 C   0  0  0  0  0  0  0  0  0  0  0  0
    0.0000    0.0000    0.0000 C   0  0  0  0  0  0  0  0  0  0  0  0
    0.0000    0.0000    0.0000 N   0  0  0  0  0  0  0  0  0  0  0  0
  1  2  1  0
  2  3  1  0
  2  4  1  0
  4  5  1  0
  5  6  2  0
  6  7  1  0
  7  8  1  0
  8  9  1  0
  9 10  1  0
 10 11  1  0
 11 12  1  0
 12 13  1  0
  7 14  2  0
 14 15  1  0
 14 16  1  0
 16 17  2  0
 17 18  1  0
 18 19  1  0
 19 20  2  0
 20 21  1  0
 21 22  2  0
 22 23  1  0
 22 24  1  0
 24 25  1  0
 25 26  1  0
 26 27  2  0
 27 28  1  0
 28 29  2  0
 29 30  1  0
 30 31  2  0
 31 32  1  0
 32 33  2  0
 32 34  2  0
 32 35  1  0
 35 36  1  0
 35 37  1  0
 24 38  2  0
 17  5  1  0
 13  8  1  0
 38 19  1  0
 31 26  1  0
M  END
>  <pIC50>  (583) 
5.9

>  <ChEMBL_ID>  (583) 
CHEMBL2403108

>  <document_journal>  (583) 
J. Med. Chem.

>  <bao_endpoint>  (583) 
BAO_0000190

>  <potential_duplicate>  (583) 
False

>  <uo_units>  (583) 
UO_0000065

>  <canonical_smiles>  (583) 
CC(C)Oc1cc(C2CCNCC2)c(C)cc1Nc3ncc(Cl)c(Nc4ccccc4S(=O)(=O)C(C)C)n3

>  <parent_molecule_chembl_id>  (583) 
CHEMBL2403108

>  <assay_type>  (583) 
B

>  <src_id>  (583) 
1

>  <ligand_efficiency>  (583) 
{u'le': u'0.21', u'bei': u'10.58', u'sei': u'5.2', u'lle': u'-0.58'}

>  <standard_flag>  (583) 
True

>  <molecule_chembl_id>  (583) 
CHEMBL2403108

>  <target_organism>  (583) 
Homo sapiens

>  <standard_units>  (583) 
nM

>  <record_id>  (583) 
1907150

>  <document_chembl_id>  (583) 
CHEMBL2401692

>  <bao_format>  (583) 
BAO_0000357

>  <data_validity_description>  (583) 
None

>  <activity_id>  (583) 
13367208

>  <standard_type>  (583) 
IC50

>  <target_chembl_id>  (583) 
CHEMBL1862

>  <data_validity_comment>  (583) 
None

>  <published_value>  (583) 
1.25

>  <document_year>  (583) 
2013

>  <target_pref_name>  (583) 
Tyrosine-protein kinase ABL

>  <assay_chembl_id>  (583) 
CHEMBL2406351

>  <standard_relation>  (583) 
=

>  <assay_description>  (583) 
Inhibition of ABL (unknown origin) after 60 mins

>  <published_relation>  (583) 
=

>  <standard_value>  (583) 
1250

>  <qudt_units>  (583) 
http://www.openphacts.org/units/Nanomolar

>  <target_tax_id>  (583) 
9606

>  <bao_label>  (583) 
single protein format

>  <published_units>  (583) 
uM

>  <pchembl_value>  (583) 
5.9

>  <published_type>  (583) 
IC50

>  <activity_comment>  (583) 
None

$$$$

     RDKit          

 29 33  0  0  0  0  0  0  0  0999 V2000
    0.0000    0.0000    0.0000 C   0  0  0  0  0  0  0  0  0  0  0  0
    0.0000    0.0000    0.0000 N   0  0  0  0  0  0  0  0  0  0  0  0
    0.0000    0.0000    0.0000 C   0  0  0  0  0  0  0  0  0  0  0  0
    0.0000    0.0000    0.0000 C   0  0  0  0  0  0  0  0  0  0  0  0
    0.0000    0.0000    0.0000 N   0  0  0  0  0  0  0  0  0  0  0  0
    0.0000    0.0000    0.0000 C   0  0  0  0  0  0  0  0  0  0  0  0
    0.0000    0.0000    0.0000 C   0  0  0  0  0  0  0  0  0  0  0  0
    0.0000    0.0000    0.0000 C   0  0  0  0  0  0  0  0  0  0  0  0
    0.0000    0.0000    0.0000 C   0  0  0  0  0  0  0  0  0  0  0  0
    0.0000    0.0000    0.0000 C   0  0  0  0  0  0  0  0  0  0  0  0
    0.0000    0.0000    0.0000 C   0  0  0  0  0  0  0  0  0  0  0  0
    0.0000    0.0000    0.0000 N   0  0  0  0  0  0  0  0  0  0  0  0
    0.0000    0.0000    0.0000 C   0  0  0  0  0  0  0  0  0  0  0  0
    0.0000    0.0000    0.0000 N   0  0  0  0  0  0  0  0  0  0  0  0
    0.0000    0.0000    0.0000 C   0  0  0  0  0  0  0  0  0  0  0  0
    0.0000    0.0000    0.0000 C   0  0  0  0  0  0  0  0  0  0  0  0
    0.0000    0.0000    0.0000 C   0  0  0  0  0  0  0  0  0  0  0  0
    0.0000    0.0000    0.0000 C   0  0  0  0  0  0  0  0  0  0  0  0
    0.0000    0.0000    0.0000 N   0  0  0  0  0  0  0  0  0  0  0  0
    0.0000    0.0000    0.0000 C   0  0  0  0  0  0  0  0  0  0  0  0
    0.0000    0.0000    0.0000 C   0  0  0  0  0  0  0  0  0  0  0  0
    0.0000    0.0000    0.0000 F   0  0  0  0  0  0  0  0  0  0  0  0
    0.0000    0.0000    0.0000 C   0  0  0  0  0  0  0  0  0  0  0  0
    0.0000    0.0000    0.0000 C   0  0  0  0  0  0  0  0  0  0  0  0
    0.0000    0.0000    0.0000 C   0  0  0  0  0  0  0  0  0  0  0  0
    0.0000    0.0000    0.0000 C   0  0  0  0  0  0  0  0  0  0  0  0
    0.0000    0.0000    0.0000 N   0  0  0  0  0  0  0  0  0  0  0  0
    0.0000    0.0000    0.0000 C   0  0  0  0  0  0  0  0  0  0  0  0
    0.0000    0.0000    0.0000 O   0  0  0  0  0  0  0  0  0  0  0  0
  1  2  1  0
  2  3  1  0
  3  4  1  0
  4  5  1  0
  5  6  1  0
  6  7  1  0
  5  8  1  0
  8  9  2  0
  9 10  1  0
 10 11  2  0
 11 12  1  0
 12 13  2  0
 13 14  1  0
 14 15  1  0
 15 16  2  0
 13 17  1  0
 17 18  2  0
 18 19  1  0
 18 20  1  0
 20 21  2  0
 21 22  1  0
 21 23  1  0
 23 24  2  0
 24 25  1  0
 25 26  2  0
 26 27  1  0
 27 28  1  0
 28 29  2  0
  7  2  1  0
 16  8  1  0
 15 11  1  0
 28 17  1  0
 26 20  1  0
M  END
>  <pIC50>  (584) 
6.35

>  <ChEMBL_ID>  (584) 
CHEMBL522892

>  <document_journal>  (584) 
J. Med. Chem.

>  <bao_endpoint>  (584) 
BAO_0000190

>  <potential_duplicate>  (584) 
False

>  <uo_units>  (584) 
UO_0000065

>  <canonical_smiles>  (584) 
CN1CCN(CC1)c2ccc3nc([nH]c3c2)C4=C(N)c5c(F)cccc5NC4=O

>  <parent_molecule_chembl_id>  (584) 
CHEMBL522892

>  <assay_type>  (584) 
B

>  <src_id>  (584) 
1

>  <ligand_efficiency>  (584) 
{u'le': u'0.3', u'bei': u'16.17', u'sei': u'7.03', u'lle': u'4.57'}

>  <standard_flag>  (584) 
True

>  <molecule_chembl_id>  (584) 
CHEMBL522892

>  <target_organism>  (584) 
Homo sapiens

>  <standard_units>  (584) 
nM

>  <record_id>  (584) 
1907192

>  <document_chembl_id>  (584) 
CHEMBL2401695

>  <bao_format>  (584) 
BAO_0000019

>  <data_validity_description>  (584) 
None

>  <activity_id>  (584) 
13370903

>  <standard_type>  (584) 
IC50

>  <target_chembl_id>  (584) 
CHEMBL1862

>  <data_validity_comment>  (584) 
None

>  <published_value>  (584) 
450

>  <document_year>  (584) 
2013

>  <target_pref_name>  (584) 
Tyrosine-protein kinase ABL

>  <assay_chembl_id>  (584) 
CHEMBL2406231

>  <standard_relation>  (584) 
=

>  <assay_description>  (584) 
Inhibition of human wild-type ABL (Ser229 to Gln513)-mediated phosphorylation of biotinylated poly-Glu-Tyr expressed in Escherichia coli BL21(DE3) preincubated for 30 to 60 mins prior to substrate addition by TR-FRET assay

>  <published_relation>  (584) 
=

>  <standard_value>  (584) 
450

>  <qudt_units>  (584) 
http://www.openphacts.org/units/Nanomolar

>  <target_tax_id>  (584) 
9606

>  <bao_label>  (584) 
assay format

>  <published_units>  (584) 
nM

>  <pchembl_value>  (584) 
6.35

>  <published_type>  (584) 
IC50

>  <activity_comment>  (584) 
None

$$$$

     RDKit          

 42 46  0  0  0  0  0  0  0  0999 V2000
    0.0000    0.0000    0.0000 C   0  0  0  0  0  0  0  0  0  0  0  0
    0.0000    0.0000    0.0000 C   0  0  0  0  0  0  0  0  0  0  0  0
    0.0000    0.0000    0.0000 C   0  0  0  0  0  0  0  0  0  0  0  0
    0.0000    0.0000    0.0000 O   0  0  0  0  0  0  0  0  0  0  0  0
    0.0000    0.0000    0.0000 N   0  0  0  0  0  0  0  0  0  0  0  0
    0.0000    0.0000    0.0000 C   0  0  0  0  0  0  0  0  0  0  0  0
    0.0000    0.0000    0.0000 C   0  0  0  0  0  0  0  0  0  0  0  0
    0.0000    0.0000    0.0000 C   0  0  0  0  0  0  0  0  0  0  0  0
    0.0000    0.0000    0.0000 C   0  0  0  0  0  0  0  0  0  0  0  0
    0.0000    0.0000    0.0000 N   0  0  0  0  0  0  0  0  0  0  0  0
    0.0000    0.0000    0.0000 C   0  0  0  0  0  0  0  0  0  0  0  0
    0.0000    0.0000    0.0000 N   0  0  0  0  0  0  0  0  0  0  0  0
    0.0000    0.0000    0.0000 C   0  0  0  0  0  0  0  0  0  0  0  0
    0.0000    0.0000    0.0000 N   0  0  0  0  0  0  0  0  0  0  0  0
    0.0000    0.0000    0.0000 C   0  0  0  0  0  0  0  0  0  0  0  0
    0.0000    0.0000    0.0000 C   0  0  0  0  0  0  0  0  0  0  0  0
    0.0000    0.0000    0.0000 C   0  0  0  0  0  0  0  0  0  0  0  0
    0.0000    0.0000    0.0000 C   0  0  0  0  0  0  0  0  0  0  0  0
    0.0000    0.0000    0.0000 N   0  0  0  0  0  0  0  0  0  0  0  0
    0.0000    0.0000    0.0000 C   0  0  0  0  0  0  0  0  0  0  0  0
    0.0000    0.0000    0.0000 O   0  0  0  0  0  0  0  0  0  0  0  0
    0.0000    0.0000    0.0000 N   0  0  0  0  0  0  0  0  0  0  0  0
    0.0000    0.0000    0.0000 C   0  0  0  0  0  0  0  0  0  0  0  0
    0.0000    0.0000    0.0000 C   0  0  0  0  0  0  0  0  0  0  0  0
    0.0000    0.0000    0.0000 C   0  0  0  0  0  0  0  0  0  0  0  0
    0.0000    0.0000    0.0000 N   0  0  0  0  0  0  0  0  0  0  0  0
    0.0000    0.0000    0.0000 N   0  0  0  0  0  0  0  0  0  0  0  0
    0.0000    0.0000    0.0000 C   0  0  0  0  0  0  0  0  0  0  0  0
    0.0000    0.0000    0.0000 C   0  0  0  0  0  0  0  0  0  0  0  0
    0.0000    0.0000    0.0000 C   0  0  0  0  0  0  0  0  0  0  0  0
    0.0000    0.0000    0.0000 C   0  0  0  0  0  0  0  0  0  0  0  0
    0.0000    0.0000    0.0000 C   0  0  0  0  0  0  0  0  0  0  0  0
    0.0000    0.0000    0.0000 C   0  0  0  0  0  0  0  0  0  0  0  0
    0.0000    0.0000    0.0000 C   0  0  0  0  0  0  0  0  0  0  0  0
    0.0000    0.0000    0.0000 C   0  0  0  0  0  0  0  0  0  0  0  0
    0.0000    0.0000    0.0000 C   0  0  0  0  0  0  0  0  0  0  0  0
    0.0000    0.0000    0.0000 C   0  0  0  0  0  0  0  0  0  0  0  0
    0.0000    0.0000    0.0000 C   0  0  0  0  0  0  0  0  0  0  0  0
    0.0000    0.0000    0.0000 C   0  0  0  0  0  0  0  0  0  0  0  0
    0.0000    0.0000    0.0000 C   0  0  0  0  0  0  0  0  0  0  0  0
    0.0000    0.0000    0.0000 C   0  0  0  0  0  0  0  0  0  0  0  0
    0.0000    0.0000    0.0000 C   0  0  0  0  0  0  0  0  0  0  0  0
  1  2  1  0
  2  3  1  0
  3  4  2  0
  3  5  1  0
  5  6  1  0
  6  7  2  0
  7  8  1  0
  8  9  2  0
  9 10  1  0
 10 11  2  0
 11 12  1  0
 12 13  2  0
 13 14  1  0
 14 15  1  0
 15 16  2  0
 16 17  1  0
 17 18  2  0
 18 19  1  0
 19 20  1  0
 20 21  2  0
 20 22  1  0
 22 23  1  0
 23 24  2  0
 24 25  1  0
 25 26  2  0
 26 27  1  0
 27 28  1  0
 28 29  2  0
 29 30  1  0
 30 31  2  0
 31 32  1  0
 32 33  1  0
 32 34  2  0
 25 35  1  0
 35 36  1  0
 35 37  1  0
 35 38  1  0
 18 39  1  0
 39 40  2  0
 13 41  1  0
 41 42  2  0
 42  6  1  0
 41  9  1  0
 40 15  1  0
 27 23  1  0
 34 28  1  0
M  END
>  <pIC50>  (585) 
6.41

>  <ChEMBL_ID>  (585) 
CHEMBL510516

>  <document_journal>  (585) 
J. Med. Chem.

>  <bao_endpoint>  (585) 
BAO_0000190

>  <potential_duplicate>  (585) 
False

>  <uo_units>  (585) 
UO_0000065

>  <canonical_smiles>  (585) 
CCC(=O)Nc1ccc2ncnc(Nc3ccc(NC(=O)Nc4cc(nn4c5cccc(C)c5)C(C)(C)C)cc3)c2c1

>  <parent_molecule_chembl_id>  (585) 
CHEMBL510516

>  <assay_type>  (585) 
B

>  <src_id>  (585) 
1

>  <ligand_efficiency>  (585) 
{u'le': u'0.21', u'bei': u'11.39', u'sei': u'5.09', u'lle': u'-0.21'}

>  <standard_flag>  (585) 
True

>  <molecule_chembl_id>  (585) 
CHEMBL510516

>  <target_organism>  (585) 
Homo sapiens

>  <standard_units>  (585) 
nM

>  <record_id>  (585) 
1907188

>  <document_chembl_id>  (585) 
CHEMBL2401695

>  <bao_format>  (585) 
BAO_0000019

>  <data_validity_description>  (585) 
None

>  <activity_id>  (585) 
13370907

>  <standard_type>  (585) 
IC50

>  <target_chembl_id>  (585) 
CHEMBL1862

>  <data_validity_comment>  (585) 
None

>  <published_value>  (585) 
388

>  <document_year>  (585) 
2013

>  <target_pref_name>  (585) 
Tyrosine-protein kinase ABL

>  <assay_chembl_id>  (585) 
CHEMBL2406231

>  <standard_relation>  (585) 
=

>  <assay_description>  (585) 
Inhibition of human wild-type ABL (Ser229 to Gln513)-mediated phosphorylation of biotinylated poly-Glu-Tyr expressed in Escherichia coli BL21(DE3) preincubated for 30 to 60 mins prior to substrate addition by TR-FRET assay

>  <published_relation>  (585) 
=

>  <standard_value>  (585) 
388

>  <qudt_units>  (585) 
http://www.openphacts.org/units/Nanomolar

>  <target_tax_id>  (585) 
9606

>  <bao_label>  (585) 
assay format

>  <published_units>  (585) 
nM

>  <pchembl_value>  (585) 
6.41

>  <published_type>  (585) 
IC50

>  <activity_comment>  (585) 
None

$$$$

     RDKit          

 37 41  0  0  0  0  0  0  0  0999 V2000
    0.0000    0.0000    0.0000 C   0  0  0  0  0  0  0  0  0  0  0  0
    0.0000    0.0000    0.0000 C   0  0  0  0  0  0  0  0  0  0  0  0
    0.0000    0.0000    0.0000 C   0  0  0  0  0  0  0  0  0  0  0  0
    0.0000    0.0000    0.0000 C   0  0  0  0  0  0  0  0  0  0  0  0
    0.0000    0.0000    0.0000 C   0  0  0  0  0  0  0  0  0  0  0  0
    0.0000    0.0000    0.0000 C   0  0  0  0  0  0  0  0  0  0  0  0
    0.0000    0.0000    0.0000 C   0  0  0  0  0  0  0  0  0  0  0  0
    0.0000    0.0000    0.0000 N   0  0  0  0  0  0  0  0  0  0  0  0
    0.0000    0.0000    0.0000 C   0  0  0  0  0  0  0  0  0  0  0  0
    0.0000    0.0000    0.0000 O   0  0  0  0  0  0  0  0  0  0  0  0
    0.0000    0.0000    0.0000 N   0  0  0  0  0  0  0  0  0  0  0  0
    0.0000    0.0000    0.0000 C   0  0  0  0  0  0  0  0  0  0  0  0
    0.0000    0.0000    0.0000 C   0  0  0  0  0  0  0  0  0  0  0  0
    0.0000    0.0000    0.0000 C   0  0  0  0  0  0  0  0  0  0  0  0
    0.0000    0.0000    0.0000 C   0  0  0  0  0  0  0  0  0  0  0  0
    0.0000    0.0000    0.0000 C   0  0  0  0  0  0  0  0  0  0  0  0
    0.0000    0.0000    0.0000 N   0  0  0  0  0  0  0  0  0  0  0  0
    0.0000    0.0000    0.0000 C   0  0  0  0  0  0  0  0  0  0  0  0
    0.0000    0.0000    0.0000 N   0  0  0  0  0  0  0  0  0  0  0  0
    0.0000    0.0000    0.0000 C   0  0  0  0  0  0  0  0  0  0  0  0
    0.0000    0.0000    0.0000 N   0  0  0  0  0  0  0  0  0  0  0  0
    0.0000    0.0000    0.0000 C   0  0  0  0  0  0  0  0  0  0  0  0
    0.0000    0.0000    0.0000 C   0  0  0  0  0  0  0  0  0  0  0  0
    0.0000    0.0000    0.0000 C   0  0  0  0  0  0  0  0  0  0  0  0
    0.0000    0.0000    0.0000 C   0  0  0  0  0  0  0  0  0  0  0  0
    0.0000    0.0000    0.0000 C   0  0  0  0  0  0  0  0  0  0  0  0
    0.0000    0.0000    0.0000 C   0  0  0  0  0  0  0  0  0  0  0  0
    0.0000    0.0000    0.0000 C   0  0  0  0  0  0  0  0  0  0  0  0
    0.0000    0.0000    0.0000 N   0  0  0  0  0  0  0  0  0  0  0  0
    0.0000    0.0000    0.0000 N   0  0  0  0  0  0  0  0  0  0  0  0
    0.0000    0.0000    0.0000 C   0  0  0  0  0  0  0  0  0  0  0  0
    0.0000    0.0000    0.0000 C   0  0  0  0  0  0  0  0  0  0  0  0
    0.0000    0.0000    0.0000 C   0  0  0  0  0  0  0  0  0  0  0  0
    0.0000    0.0000    0.0000 C   0  0  0  0  0  0  0  0  0  0  0  0
    0.0000    0.0000    0.0000 C   0  0  0  0  0  0  0  0  0  0  0  0
    0.0000    0.0000    0.0000 N   0  0  0  0  0  0  0  0  0  0  0  0
    0.0000    0.0000    0.0000 C   0  0  0  0  0  0  0  0  0  0  0  0
  1  2  1  0
  2  3  1  0
  2  4  1  0
  2  5  1  0
  5  6  1  0
  6  7  2  0
  7  8  1  0
  8  9  1  0
  9 10  2  0
  9 11  1  0
 11 12  1  0
 12 13  2  0
 13 14  1  0
 14 15  2  0
 15 16  1  0
 16 17  1  0
 17 18  1  0
 18 19  2  0
 19 20  1  0
 20 21  2  0
 21 22  1  0
 22 23  2  0
 23 24  1  0
 24 25  2  0
 25 26  1  0
 26 27  2  0
 16 28  2  0
  7 29  1  0
 29 30  1  0
 29 31  1  0
 31 32  2  0
 32 33  1  0
 33 34  2  0
 34 35  1  0
 35 36  1  0
 35 37  2  0
 30  5  2  0
 28 12  1  0
 27 18  1  0
 27 22  1  0
 37 31  1  0
M  END
>  <pIC50>  (586) 
7.64

>  <ChEMBL_ID>  (586) 
CHEMBL2403875

>  <document_journal>  (586) 
J. Med. Chem.

>  <bao_endpoint>  (586) 
BAO_0000190

>  <potential_duplicate>  (586) 
False

>  <uo_units>  (586) 
UO_0000065

>  <canonical_smiles>  (586) 
CC(C)(C)c1cc(NC(=O)Nc2cccc(Nc3ncnc4ccccc34)c2)n(n1)c5cccc(N)c5

>  <parent_molecule_chembl_id>  (586) 
CHEMBL2403875

>  <assay_type>  (586) 
B

>  <src_id>  (586) 
1

>  <ligand_efficiency>  (586) 
{u'le': u'0.28', u'bei': u'15.51', u'sei': u'6.22', u'lle': u'2.04'}

>  <standard_flag>  (586) 
True

>  <molecule_chembl_id>  (586) 
CHEMBL2403875

>  <target_organism>  (586) 
Homo sapiens

>  <standard_units>  (586) 
nM

>  <record_id>  (586) 
1907183

>  <document_chembl_id>  (586) 
CHEMBL2401695

>  <bao_format>  (586) 
BAO_0000019

>  <data_validity_description>  (586) 
None

>  <activity_id>  (586) 
13370908

>  <standard_type>  (586) 
IC50

>  <target_chembl_id>  (586) 
CHEMBL1862

>  <data_validity_comment>  (586) 
None

>  <published_value>  (586) 
23

>  <document_year>  (586) 
2013

>  <target_pref_name>  (586) 
Tyrosine-protein kinase ABL

>  <assay_chembl_id>  (586) 
CHEMBL2406231

>  <standard_relation>  (586) 
=

>  <assay_description>  (586) 
Inhibition of human wild-type ABL (Ser229 to Gln513)-mediated phosphorylation of biotinylated poly-Glu-Tyr expressed in Escherichia coli BL21(DE3) preincubated for 30 to 60 mins prior to substrate addition by TR-FRET assay

>  <published_relation>  (586) 
=

>  <standard_value>  (586) 
23

>  <qudt_units>  (586) 
http://www.openphacts.org/units/Nanomolar

>  <target_tax_id>  (586) 
9606

>  <bao_label>  (586) 
assay format

>  <published_units>  (586) 
nM

>  <pchembl_value>  (586) 
7.64

>  <published_type>  (586) 
IC50

>  <activity_comment>  (586) 
None

$$$$

     RDKit          

 39 43  0  0  0  0  0  0  0  0999 V2000
    0.0000    0.0000    0.0000 C   0  0  0  0  0  0  0  0  0  0  0  0
    0.0000    0.0000    0.0000 C   0  0  0  0  0  0  0  0  0  0  0  0
    0.0000    0.0000    0.0000 C   0  0  0  0  0  0  0  0  0  0  0  0
    0.0000    0.0000    0.0000 C   0  0  0  0  0  0  0  0  0  0  0  0
    0.0000    0.0000    0.0000 C   0  0  0  0  0  0  0  0  0  0  0  0
    0.0000    0.0000    0.0000 C   0  0  0  0  0  0  0  0  0  0  0  0
    0.0000    0.0000    0.0000 C   0  0  0  0  0  0  0  0  0  0  0  0
    0.0000    0.0000    0.0000 N   0  0  0  0  0  0  0  0  0  0  0  0
    0.0000    0.0000    0.0000 C   0  0  0  0  0  0  0  0  0  0  0  0
    0.0000    0.0000    0.0000 O   0  0  0  0  0  0  0  0  0  0  0  0
    0.0000    0.0000    0.0000 N   0  0  0  0  0  0  0  0  0  0  0  0
    0.0000    0.0000    0.0000 C   0  0  0  0  0  0  0  0  0  0  0  0
    0.0000    0.0000    0.0000 C   0  0  0  0  0  0  0  0  0  0  0  0
    0.0000    0.0000    0.0000 C   0  0  0  0  0  0  0  0  0  0  0  0
    0.0000    0.0000    0.0000 C   0  0  0  0  0  0  0  0  0  0  0  0
    0.0000    0.0000    0.0000 C   0  0  0  0  0  0  0  0  0  0  0  0
    0.0000    0.0000    0.0000 N   0  0  0  0  0  0  0  0  0  0  0  0
    0.0000    0.0000    0.0000 C   0  0  0  0  0  0  0  0  0  0  0  0
    0.0000    0.0000    0.0000 N   0  0  0  0  0  0  0  0  0  0  0  0
    0.0000    0.0000    0.0000 C   0  0  0  0  0  0  0  0  0  0  0  0
    0.0000    0.0000    0.0000 N   0  0  0  0  0  0  0  0  0  0  0  0
    0.0000    0.0000    0.0000 C   0  0  0  0  0  0  0  0  0  0  0  0
    0.0000    0.0000    0.0000 C   0  0  0  0  0  0  0  0  0  0  0  0
    0.0000    0.0000    0.0000 C   0  0  0  0  0  0  0  0  0  0  0  0
    0.0000    0.0000    0.0000 C   0  0  0  0  0  0  0  0  0  0  0  0
    0.0000    0.0000    0.0000 C   0  0  0  0  0  0  0  0  0  0  0  0
    0.0000    0.0000    0.0000 C   0  0  0  0  0  0  0  0  0  0  0  0
    0.0000    0.0000    0.0000 C   0  0  0  0  0  0  0  0  0  0  0  0
    0.0000    0.0000    0.0000 N   0  0  0  0  0  0  0  0  0  0  0  0
    0.0000    0.0000    0.0000 N   0  0  0  0  0  0  0  0  0  0  0  0
    0.0000    0.0000    0.0000 C   0  0  0  0  0  0  0  0  0  0  0  0
    0.0000    0.0000    0.0000 C   0  0  0  0  0  0  0  0  0  0  0  0
    0.0000    0.0000    0.0000 C   0  0  0  0  0  0  0  0  0  0  0  0
    0.0000    0.0000    0.0000 C   0  0  0  0  0  0  0  0  0  0  0  0
    0.0000    0.0000    0.0000 C   0  0  0  0  0  0  0  0  0  0  0  0
    0.0000    0.0000    0.0000 C   0  0  0  0  0  0  0  0  0  0  0  0
    0.0000    0.0000    0.0000 N   0  0  0  0  0  0  0  0  0  0  0  0
    0.0000    0.0000    0.0000 O   0  0  0  0  0  0  0  0  0  0  0  0
    0.0000    0.0000    0.0000 O   0  0  0  0  0  0  0  0  0  0  0  0
  1  2  1  0
  2  3  1  0
  2  4  1  0
  2  5  1  0
  5  6  1  0
  6  7  2  0
  7  8  1  0
  8  9  1  0
  9 10  2  0
  9 11  1  0
 11 12  1  0
 12 13  2  0
 13 14  1  0
 14 15  2  0
 15 16  1  0
 16 17  1  0
 17 18  1  0
 18 19  2  0
 19 20  1  0
 20 21  2  0
 21 22  1  0
 22 23  2  0
 23 24  1  0
 24 25  2  0
 25 26  1  0
 26 27  2  0
 16 28  2  0
  7 29  1  0
 29 30  1  0
 29 31  1  0
 31 32  2  0
 32 33  1  0
 33 34  2  0
 34 35  1  0
 35 36  2  0
 35 37  1  0
 37 38  2  0
 37 39  1  0
 30  5  2  0
 28 12  1  0
 27 18  1  0
 27 22  1  0
 36 31  1  0
M  CHG  2  37   1  39  -1
M  END
>  <pIC50>  (587) 
8.05

>  <ChEMBL_ID>  (587) 
CHEMBL2403874

>  <document_journal>  (587) 
J. Med. Chem.

>  <bao_endpoint>  (587) 
BAO_0000190

>  <potential_duplicate>  (587) 
False

>  <uo_units>  (587) 
UO_0000065

>  <canonical_smiles>  (587) 
CC(C)(C)c1cc(NC(=O)Nc2cccc(Nc3ncnc4ccccc34)c2)n(n1)c5cccc(c5)[N+](=O)[O-]

>  <parent_molecule_chembl_id>  (587) 
CHEMBL2403874

>  <assay_type>  (587) 
B

>  <src_id>  (587) 
1

>  <ligand_efficiency>  (587) 
{u'le': u'0.28', u'bei': u'15.4', u'sei': u'5.64', u'lle': u'1.81'}

>  <standard_flag>  (587) 
True

>  <molecule_chembl_id>  (587) 
CHEMBL2403874

>  <target_organism>  (587) 
Homo sapiens

>  <standard_units>  (587) 
nM

>  <record_id>  (587) 
1907182

>  <document_chembl_id>  (587) 
CHEMBL2401695

>  <bao_format>  (587) 
BAO_0000019

>  <data_validity_description>  (587) 
None

>  <activity_id>  (587) 
13370909

>  <standard_type>  (587) 
IC50

>  <target_chembl_id>  (587) 
CHEMBL1862

>  <data_validity_comment>  (587) 
None

>  <published_value>  (587) 
9

>  <document_year>  (587) 
2013

>  <target_pref_name>  (587) 
Tyrosine-protein kinase ABL

>  <assay_chembl_id>  (587) 
CHEMBL2406231

>  <standard_relation>  (587) 
=

>  <assay_description>  (587) 
Inhibition of human wild-type ABL (Ser229 to Gln513)-mediated phosphorylation of biotinylated poly-Glu-Tyr expressed in Escherichia coli BL21(DE3) preincubated for 30 to 60 mins prior to substrate addition by TR-FRET assay

>  <published_relation>  (587) 
=

>  <standard_value>  (587) 
9

>  <qudt_units>  (587) 
http://www.openphacts.org/units/Nanomolar

>  <target_tax_id>  (587) 
9606

>  <bao_label>  (587) 
assay format

>  <published_units>  (587) 
nM

>  <pchembl_value>  (587) 
8.05

>  <published_type>  (587) 
IC50

>  <activity_comment>  (587) 
None

$$$$

     RDKit          

 48 53  0  0  0  0  0  0  0  0999 V2000
    0.0000    0.0000    0.0000 C   0  0  0  0  0  0  0  0  0  0  0  0
    0.0000    0.0000    0.0000 C   0  0  0  0  0  0  0  0  0  0  0  0
    0.0000    0.0000    0.0000 C   0  0  0  0  0  0  0  0  0  0  0  0
    0.0000    0.0000    0.0000 C   0  0  0  0  0  0  0  0  0  0  0  0
    0.0000    0.0000    0.0000 C   0  0  0  0  0  0  0  0  0  0  0  0
    0.0000    0.0000    0.0000 C   0  0  0  0  0  0  0  0  0  0  0  0
    0.0000    0.0000    0.0000 C   0  0  0  0  0  0  0  0  0  0  0  0
    0.0000    0.0000    0.0000 N   0  0  0  0  0  0  0  0  0  0  0  0
    0.0000    0.0000    0.0000 C   0  0  0  0  0  0  0  0  0  0  0  0
    0.0000    0.0000    0.0000 O   0  0  0  0  0  0  0  0  0  0  0  0
    0.0000    0.0000    0.0000 N   0  0  0  0  0  0  0  0  0  0  0  0
    0.0000    0.0000    0.0000 C   0  0  0  0  0  0  0  0  0  0  0  0
    0.0000    0.0000    0.0000 C   0  0  0  0  0  0  0  0  0  0  0  0
    0.0000    0.0000    0.0000 C   0  0  0  0  0  0  0  0  0  0  0  0
    0.0000    0.0000    0.0000 C   0  0  0  0  0  0  0  0  0  0  0  0
    0.0000    0.0000    0.0000 N   0  0  0  0  0  0  0  0  0  0  0  0
    0.0000    0.0000    0.0000 C   0  0  0  0  0  0  0  0  0  0  0  0
    0.0000    0.0000    0.0000 N   0  0  0  0  0  0  0  0  0  0  0  0
    0.0000    0.0000    0.0000 C   0  0  0  0  0  0  0  0  0  0  0  0
    0.0000    0.0000    0.0000 N   0  0  0  0  0  0  0  0  0  0  0  0
    0.0000    0.0000    0.0000 C   0  0  0  0  0  0  0  0  0  0  0  0
    0.0000    0.0000    0.0000 C   0  0  0  0  0  0  0  0  0  0  0  0
    0.0000    0.0000    0.0000 C   0  0  0  0  0  0  0  0  0  0  0  0
    0.0000    0.0000    0.0000 C   0  0  0  0  0  0  0  0  0  0  0  0
    0.0000    0.0000    0.0000 N   0  0  0  0  0  0  0  0  0  0  0  0
    0.0000    0.0000    0.0000 C   0  0  0  0  0  0  0  0  0  0  0  0
    0.0000    0.0000    0.0000 O   0  0  0  0  0  0  0  0  0  0  0  0
    0.0000    0.0000    0.0000 C   0  0  0  0  0  0  0  0  0  0  0  0
    0.0000    0.0000    0.0000 C   0  0  0  0  0  0  0  0  0  0  0  0
    0.0000    0.0000    0.0000 N   0  0  0  0  0  0  0  0  0  0  0  0
    0.0000    0.0000    0.0000 C   0  0  0  0  0  0  0  0  0  0  0  0
    0.0000    0.0000    0.0000 C   0  0  0  0  0  0  0  0  0  0  0  0
    0.0000    0.0000    0.0000 O   0  0  0  0  0  0  0  0  0  0  0  0
    0.0000    0.0000    0.0000 C   0  0  0  0  0  0  0  0  0  0  0  0
    0.0000    0.0000    0.0000 C   0  0  0  0  0  0  0  0  0  0  0  0
    0.0000    0.0000    0.0000 C   0  0  0  0  0  0  0  0  0  0  0  0
    0.0000    0.0000    0.0000 C   0  0  0  0  0  0  0  0  0  0  0  0
    0.0000    0.0000    0.0000 C   0  0  0  0  0  0  0  0  0  0  0  0
    0.0000    0.0000    0.0000 C   0  0  0  0  0  0  0  0  0  0  0  0
    0.0000    0.0000    0.0000 N   0  0  0  0  0  0  0  0  0  0  0  0
    0.0000    0.0000    0.0000 N   0  0  0  0  0  0  0  0  0  0  0  0
    0.0000    0.0000    0.0000 C   0  0  0  0  0  0  0  0  0  0  0  0
    0.0000    0.0000    0.0000 C   0  0  0  0  0  0  0  0  0  0  0  0
    0.0000    0.0000    0.0000 C   0  0  0  0  0  0  0  0  0  0  0  0
    0.0000    0.0000    0.0000 C   0  0  0  0  0  0  0  0  0  0  0  0
    0.0000    0.0000    0.0000 C   0  0  0  0  0  0  0  0  0  0  0  0
    0.0000    0.0000    0.0000 N   0  0  0  0  0  0  0  0  0  0  0  0
    0.0000    0.0000    0.0000 C   0  0  0  0  0  0  0  0  0  0  0  0
  1  2  1  0
  2  3  1  0
  2  4  1  0
  2  5  1  0
  5  6  1  0
  6  7  2  0
  7  8  1  0
  8  9  1  0
  9 10  2  0
  9 11  1  0
 11 12  1  0
 12 13  2  0
 13 14  1  0
 14 15  2  0
 15 16  1  0
 16 17  1  0
 17 18  2  0
 18 19  1  0
 19 20  2  0
 20 21  1  0
 21 22  2  0
 22 23  1  0
 23 24  2  0
 24 25  1  0
 25 26  1  0
 26 27  2  0
 26 28  1  0
 28 29  1  0
 29 30  1  0
 30 31  1  0
 31 32  1  0
 32 33  1  0
 33 34  1  0
 34 35  1  0
 24 36  1  0
 36 37  2  0
 15 38  1  0
 38 39  2  0
  7 40  1  0
 40 41  1  0
 40 42  1  0
 42 43  2  0
 43 44  1  0
 44 45  2  0
 45 46  1  0
 46 47  1  0
 46 48  2  0
 41  5  2  0
 39 12  1  0
 37 17  1  0
 37 21  1  0
 35 30  1  0
 48 42  1  0
M  END
>  <pIC50>  (588) 
6.42

>  <ChEMBL_ID>  (588) 
CHEMBL2403821

>  <document_journal>  (588) 
J. Med. Chem.

>  <bao_endpoint>  (588) 
BAO_0000190

>  <potential_duplicate>  (588) 
False

>  <uo_units>  (588) 
UO_0000065

>  <canonical_smiles>  (588) 
CC(C)(C)c1cc(NC(=O)Nc2ccc(Nc3ncnc4ccc(NC(=O)CCN5CCOCC5)cc34)cc2)n(n1)c6cccc(N)c6

>  <parent_molecule_chembl_id>  (588) 
CHEMBL2403821

>  <assay_type>  (588) 
B

>  <src_id>  (588) 
1

>  <ligand_efficiency>  (588) 
{u'le': u'0.18', u'bei': u'9.9', u'sei': u'3.91', u'lle': u'1.75'}

>  <standard_flag>  (588) 
True

>  <molecule_chembl_id>  (588) 
CHEMBL2403821

>  <target_organism>  (588) 
Homo sapiens

>  <standard_units>  (588) 
nM

>  <record_id>  (588) 
1907121

>  <document_chembl_id>  (588) 
CHEMBL2401695

>  <bao_format>  (588) 
BAO_0000019

>  <data_validity_description>  (588) 
None

>  <activity_id>  (588) 
13370910

>  <standard_type>  (588) 
IC50

>  <target_chembl_id>  (588) 
CHEMBL1862

>  <data_validity_comment>  (588) 
None

>  <published_value>  (588) 
379

>  <document_year>  (588) 
2013

>  <target_pref_name>  (588) 
Tyrosine-protein kinase ABL

>  <assay_chembl_id>  (588) 
CHEMBL2406231

>  <standard_relation>  (588) 
=

>  <assay_description>  (588) 
Inhibition of human wild-type ABL (Ser229 to Gln513)-mediated phosphorylation of biotinylated poly-Glu-Tyr expressed in Escherichia coli BL21(DE3) preincubated for 30 to 60 mins prior to substrate addition by TR-FRET assay

>  <published_relation>  (588) 
=

>  <standard_value>  (588) 
379

>  <qudt_units>  (588) 
http://www.openphacts.org/units/Nanomolar

>  <target_tax_id>  (588) 
9606

>  <bao_label>  (588) 
assay format

>  <published_units>  (588) 
nM

>  <pchembl_value>  (588) 
6.42

>  <published_type>  (588) 
IC50

>  <activity_comment>  (588) 
None

$$$$

     RDKit          

 49 54  0  0  0  0  0  0  0  0999 V2000
    0.0000    0.0000    0.0000 C   0  0  0  0  0  0  0  0  0  0  0  0
    0.0000    0.0000    0.0000 N   0  0  0  0  0  0  0  0  0  0  0  0
    0.0000    0.0000    0.0000 C   0  0  0  0  0  0  0  0  0  0  0  0
    0.0000    0.0000    0.0000 C   0  0  0  0  0  0  0  0  0  0  0  0
    0.0000    0.0000    0.0000 N   0  0  0  0  0  0  0  0  0  0  0  0
    0.0000    0.0000    0.0000 C   0  0  0  0  0  0  0  0  0  0  0  0
    0.0000    0.0000    0.0000 C   0  0  0  0  0  0  0  0  0  0  0  0
    0.0000    0.0000    0.0000 C   0  0  0  0  0  0  0  0  0  0  0  0
    0.0000    0.0000    0.0000 O   0  0  0  0  0  0  0  0  0  0  0  0
    0.0000    0.0000    0.0000 N   0  0  0  0  0  0  0  0  0  0  0  0
    0.0000    0.0000    0.0000 C   0  0  0  0  0  0  0  0  0  0  0  0
    0.0000    0.0000    0.0000 C   0  0  0  0  0  0  0  0  0  0  0  0
    0.0000    0.0000    0.0000 C   0  0  0  0  0  0  0  0  0  0  0  0
    0.0000    0.0000    0.0000 C   0  0  0  0  0  0  0  0  0  0  0  0
    0.0000    0.0000    0.0000 N   0  0  0  0  0  0  0  0  0  0  0  0
    0.0000    0.0000    0.0000 C   0  0  0  0  0  0  0  0  0  0  0  0
    0.0000    0.0000    0.0000 N   0  0  0  0  0  0  0  0  0  0  0  0
    0.0000    0.0000    0.0000 C   0  0  0  0  0  0  0  0  0  0  0  0
    0.0000    0.0000    0.0000 N   0  0  0  0  0  0  0  0  0  0  0  0
    0.0000    0.0000    0.0000 C   0  0  0  0  0  0  0  0  0  0  0  0
    0.0000    0.0000    0.0000 C   0  0  0  0  0  0  0  0  0  0  0  0
    0.0000    0.0000    0.0000 C   0  0  0  0  0  0  0  0  0  0  0  0
    0.0000    0.0000    0.0000 C   0  0  0  0  0  0  0  0  0  0  0  0
    0.0000    0.0000    0.0000 N   0  0  0  0  0  0  0  0  0  0  0  0
    0.0000    0.0000    0.0000 C   0  0  0  0  0  0  0  0  0  0  0  0
    0.0000    0.0000    0.0000 O   0  0  0  0  0  0  0  0  0  0  0  0
    0.0000    0.0000    0.0000 N   0  0  0  0  0  0  0  0  0  0  0  0
    0.0000    0.0000    0.0000 C   0  0  0  0  0  0  0  0  0  0  0  0
    0.0000    0.0000    0.0000 C   0  0  0  0  0  0  0  0  0  0  0  0
    0.0000    0.0000    0.0000 C   0  0  0  0  0  0  0  0  0  0  0  0
    0.0000    0.0000    0.0000 N   0  0  0  0  0  0  0  0  0  0  0  0
    0.0000    0.0000    0.0000 N   0  0  0  0  0  0  0  0  0  0  0  0
    0.0000    0.0000    0.0000 C   0  0  0  0  0  0  0  0  0  0  0  0
    0.0000    0.0000    0.0000 C   0  0  0  0  0  0  0  0  0  0  0  0
    0.0000    0.0000    0.0000 C   0  0  0  0  0  0  0  0  0  0  0  0
    0.0000    0.0000    0.0000 C   0  0  0  0  0  0  0  0  0  0  0  0
    0.0000    0.0000    0.0000 C   0  0  0  0  0  0  0  0  0  0  0  0
    0.0000    0.0000    0.0000 N   0  0  0  0  0  0  0  0  0  0  0  0
    0.0000    0.0000    0.0000 C   0  0  0  0  0  0  0  0  0  0  0  0
    0.0000    0.0000    0.0000 C   0  0  0  0  0  0  0  0  0  0  0  0
    0.0000    0.0000    0.0000 C   0  0  0  0  0  0  0  0  0  0  0  0
    0.0000    0.0000    0.0000 C   0  0  0  0  0  0  0  0  0  0  0  0
    0.0000    0.0000    0.0000 C   0  0  0  0  0  0  0  0  0  0  0  0
    0.0000    0.0000    0.0000 C   0  0  0  0  0  0  0  0  0  0  0  0
    0.0000    0.0000    0.0000 C   0  0  0  0  0  0  0  0  0  0  0  0
    0.0000    0.0000    0.0000 C   0  0  0  0  0  0  0  0  0  0  0  0
    0.0000    0.0000    0.0000 C   0  0  0  0  0  0  0  0  0  0  0  0
    0.0000    0.0000    0.0000 C   0  0  0  0  0  0  0  0  0  0  0  0
    0.0000    0.0000    0.0000 C   0  0  0  0  0  0  0  0  0  0  0  0
  1  2  1  0
  2  3  1  0
  3  4  1  0
  4  5  1  0
  5  6  1  0
  6  7  1  0
  7  8  1  0
  8  9  2  0
  8 10  1  0
 10 11  1  0
 11 12  2  0
 12 13  1  0
 13 14  2  0
 14 15  1  0
 15 16  2  0
 16 17  1  0
 17 18  2  0
 18 19  1  0
 19 20  1  0
 20 21  2  0
 21 22  1  0
 22 23  2  0
 23 24  1  0
 24 25  1  0
 25 26  2  0
 25 27  1  0
 27 28  1  0
 28 29  2  0
 29 30  1  0
 30 31  2  0
 31 32  1  0
 32 33  1  0
 33 34  2  0
 34 35  1  0
 35 36  2  0
 36 37  1  0
 37 38  1  0
 37 39  2  0
 30 40  1  0
 40 41  1  0
 40 42  1  0
 40 43  1  0
 23 44  1  0
 44 45  2  0
 18 46  1  0
 46 47  2  0
  5 48  1  0
 48 49  1  0
 49  2  1  0
 47 11  1  0
 46 14  1  0
 45 20  1  0
 32 28  1  0
 39 33  1  0
M  END
>  <pIC50>  (589) 
7.22

>  <ChEMBL_ID>  (589) 
CHEMBL2403820

>  <document_journal>  (589) 
J. Med. Chem.

>  <bao_endpoint>  (589) 
BAO_0000190

>  <potential_duplicate>  (589) 
False

>  <uo_units>  (589) 
UO_0000065

>  <canonical_smiles>  (589) 
CN1CCN(CCC(=O)Nc2ccc3ncnc(Nc4ccc(NC(=O)Nc5cc(nn5c6cccc(N)c6)C(C)(C)C)cc4)c3c2)CC1

>  <parent_molecule_chembl_id>  (589) 
CHEMBL2403820

>  <assay_type>  (589) 
B

>  <src_id>  (589) 
1

>  <ligand_efficiency>  (589) 
{u'le': u'0.2', u'bei': u'10.9', u'sei': u'4.56', u'lle': u'2.27'}

>  <standard_flag>  (589) 
True

>  <molecule_chembl_id>  (589) 
CHEMBL2403820

>  <target_organism>  (589) 
Homo sapiens

>  <standard_units>  (589) 
nM

>  <record_id>  (589) 
1907120

>  <document_chembl_id>  (589) 
CHEMBL2401695

>  <bao_format>  (589) 
BAO_0000019

>  <data_validity_description>  (589) 
None

>  <activity_id>  (589) 
13370911

>  <standard_type>  (589) 
IC50

>  <target_chembl_id>  (589) 
CHEMBL1862

>  <data_validity_comment>  (589) 
None

>  <published_value>  (589) 
61

>  <document_year>  (589) 
2013

>  <target_pref_name>  (589) 
Tyrosine-protein kinase ABL

>  <assay_chembl_id>  (589) 
CHEMBL2406231

>  <standard_relation>  (589) 
=

>  <assay_description>  (589) 
Inhibition of human wild-type ABL (Ser229 to Gln513)-mediated phosphorylation of biotinylated poly-Glu-Tyr expressed in Escherichia coli BL21(DE3) preincubated for 30 to 60 mins prior to substrate addition by TR-FRET assay

>  <published_relation>  (589) 
=

>  <standard_value>  (589) 
61

>  <qudt_units>  (589) 
http://www.openphacts.org/units/Nanomolar

>  <target_tax_id>  (589) 
9606

>  <bao_label>  (589) 
assay format

>  <published_units>  (589) 
nM

>  <pchembl_value>  (589) 
7.22

>  <published_type>  (589) 
IC50

>  <activity_comment>  (589) 
None

$$$$

     RDKit          

 46 50  0  0  0  0  0  0  0  0999 V2000
    0.0000    0.0000    0.0000 C   0  0  0  0  0  0  0  0  0  0  0  0
    0.0000    0.0000    0.0000 N   0  0  0  0  0  0  0  0  0  0  0  0
    0.0000    0.0000    0.0000 C   0  0  0  0  0  0  0  0  0  0  0  0
    0.0000    0.0000    0.0000 C   0  0  0  0  0  0  0  0  0  0  0  0
    0.0000    0.0000    0.0000 C   0  0  0  0  0  0  0  0  0  0  0  0
    0.0000    0.0000    0.0000 C   0  0  0  0  0  0  0  0  0  0  0  0
    0.0000    0.0000    0.0000 C   0  0  0  0  0  0  0  0  0  0  0  0
    0.0000    0.0000    0.0000 O   0  0  0  0  0  0  0  0  0  0  0  0
    0.0000    0.0000    0.0000 N   0  0  0  0  0  0  0  0  0  0  0  0
    0.0000    0.0000    0.0000 C   0  0  0  0  0  0  0  0  0  0  0  0
    0.0000    0.0000    0.0000 C   0  0  0  0  0  0  0  0  0  0  0  0
    0.0000    0.0000    0.0000 C   0  0  0  0  0  0  0  0  0  0  0  0
    0.0000    0.0000    0.0000 C   0  0  0  0  0  0  0  0  0  0  0  0
    0.0000    0.0000    0.0000 N   0  0  0  0  0  0  0  0  0  0  0  0
    0.0000    0.0000    0.0000 C   0  0  0  0  0  0  0  0  0  0  0  0
    0.0000    0.0000    0.0000 N   0  0  0  0  0  0  0  0  0  0  0  0
    0.0000    0.0000    0.0000 C   0  0  0  0  0  0  0  0  0  0  0  0
    0.0000    0.0000    0.0000 N   0  0  0  0  0  0  0  0  0  0  0  0
    0.0000    0.0000    0.0000 C   0  0  0  0  0  0  0  0  0  0  0  0
    0.0000    0.0000    0.0000 C   0  0  0  0  0  0  0  0  0  0  0  0
    0.0000    0.0000    0.0000 C   0  0  0  0  0  0  0  0  0  0  0  0
    0.0000    0.0000    0.0000 C   0  0  0  0  0  0  0  0  0  0  0  0
    0.0000    0.0000    0.0000 N   0  0  0  0  0  0  0  0  0  0  0  0
    0.0000    0.0000    0.0000 C   0  0  0  0  0  0  0  0  0  0  0  0
    0.0000    0.0000    0.0000 O   0  0  0  0  0  0  0  0  0  0  0  0
    0.0000    0.0000    0.0000 N   0  0  0  0  0  0  0  0  0  0  0  0
    0.0000    0.0000    0.0000 C   0  0  0  0  0  0  0  0  0  0  0  0
    0.0000    0.0000    0.0000 C   0  0  0  0  0  0  0  0  0  0  0  0
    0.0000    0.0000    0.0000 C   0  0  0  0  0  0  0  0  0  0  0  0
    0.0000    0.0000    0.0000 N   0  0  0  0  0  0  0  0  0  0  0  0
    0.0000    0.0000    0.0000 N   0  0  0  0  0  0  0  0  0  0  0  0
    0.0000    0.0000    0.0000 C   0  0  0  0  0  0  0  0  0  0  0  0
    0.0000    0.0000    0.0000 C   0  0  0  0  0  0  0  0  0  0  0  0
    0.0000    0.0000    0.0000 C   0  0  0  0  0  0  0  0  0  0  0  0
    0.0000    0.0000    0.0000 C   0  0  0  0  0  0  0  0  0  0  0  0
    0.0000    0.0000    0.0000 C   0  0  0  0  0  0  0  0  0  0  0  0
    0.0000    0.0000    0.0000 N   0  0  0  0  0  0  0  0  0  0  0  0
    0.0000    0.0000    0.0000 C   0  0  0  0  0  0  0  0  0  0  0  0
    0.0000    0.0000    0.0000 C   0  0  0  0  0  0  0  0  0  0  0  0
    0.0000    0.0000    0.0000 C   0  0  0  0  0  0  0  0  0  0  0  0
    0.0000    0.0000    0.0000 C   0  0  0  0  0  0  0  0  0  0  0  0
    0.0000    0.0000    0.0000 C   0  0  0  0  0  0  0  0  0  0  0  0
    0.0000    0.0000    0.0000 C   0  0  0  0  0  0  0  0  0  0  0  0
    0.0000    0.0000    0.0000 C   0  0  0  0  0  0  0  0  0  0  0  0
    0.0000    0.0000    0.0000 C   0  0  0  0  0  0  0  0  0  0  0  0
    0.0000    0.0000    0.0000 C   0  0  0  0  0  0  0  0  0  0  0  0
  1  2  1  0
  2  3  1  0
  2  4  1  0
  4  5  1  0
  5  6  1  0
  6  7  1  0
  7  8  2  0
  7  9  1  0
  9 10  1  0
 10 11  2  0
 11 12  1  0
 12 13  2  0
 13 14  1  0
 14 15  2  0
 15 16  1  0
 16 17  2  0
 17 18  1  0
 18 19  1  0
 19 20  2  0
 20 21  1  0
 21 22  2  0
 22 23  1  0
 23 24  1  0
 24 25  2  0
 24 26  1  0
 26 27  1  0
 27 28  2  0
 28 29  1  0
 29 30  2  0
 30 31  1  0
 31 32  1  0
 32 33  2  0
 33 34  1  0
 34 35  2  0
 35 36  1  0
 36 37  1  0
 36 38  2  0
 29 39  1  0
 39 40  1  0
 39 41  1  0
 39 42  1  0
 22 43  1  0
 43 44  2  0
 17 45  1  0
 45 46  2  0
 46 10  1  0
 45 13  1  0
 44 19  1  0
 31 27  1  0
 38 32  1  0
M  END
>  <pIC50>  (590) 
6.91

>  <ChEMBL_ID>  (590) 
CHEMBL2403819

>  <document_journal>  (590) 
J. Med. Chem.

>  <bao_endpoint>  (590) 
BAO_0000190

>  <potential_duplicate>  (590) 
False

>  <uo_units>  (590) 
UO_0000065

>  <canonical_smiles>  (590) 
CN(C)CCCC(=O)Nc1ccc2ncnc(Nc3ccc(NC(=O)Nc4cc(nn4c5cccc(N)c5)C(C)(C)C)cc3)c2c1

>  <parent_molecule_chembl_id>  (590) 
CHEMBL2403819

>  <assay_type>  (590) 
B

>  <src_id>  (590) 
1

>  <ligand_efficiency>  (590) 
{u'le': u'0.21', u'bei': u'11.13', u'sei': u'4.45', u'lle': u'1.61'}

>  <standard_flag>  (590) 
True

>  <molecule_chembl_id>  (590) 
CHEMBL2403819

>  <target_organism>  (590) 
Homo sapiens

>  <standard_units>  (590) 
nM

>  <record_id>  (590) 
1907119

>  <document_chembl_id>  (590) 
CHEMBL2401695

>  <bao_format>  (590) 
BAO_0000019

>  <data_validity_description>  (590) 
None

>  <activity_id>  (590) 
13370912

>  <standard_type>  (590) 
IC50

>  <target_chembl_id>  (590) 
CHEMBL1862

>  <data_validity_comment>  (590) 
None

>  <published_value>  (590) 
124

>  <document_year>  (590) 
2013

>  <target_pref_name>  (590) 
Tyrosine-protein kinase ABL

>  <assay_chembl_id>  (590) 
CHEMBL2406231

>  <standard_relation>  (590) 
=

>  <assay_description>  (590) 
Inhibition of human wild-type ABL (Ser229 to Gln513)-mediated phosphorylation of biotinylated poly-Glu-Tyr expressed in Escherichia coli BL21(DE3) preincubated for 30 to 60 mins prior to substrate addition by TR-FRET assay

>  <published_relation>  (590) 
=

>  <standard_value>  (590) 
124

>  <qudt_units>  (590) 
http://www.openphacts.org/units/Nanomolar

>  <target_tax_id>  (590) 
9606

>  <bao_label>  (590) 
assay format

>  <published_units>  (590) 
nM

>  <pchembl_value>  (590) 
6.91

>  <published_type>  (590) 
IC50

>  <activity_comment>  (590) 
None

$$$$

     RDKit          

 42 46  0  0  0  0  0  0  0  0999 V2000
    0.0000    0.0000    0.0000 C   0  0  0  0  0  0  0  0  0  0  0  0
    0.0000    0.0000    0.0000 C   0  0  0  0  0  0  0  0  0  0  0  0
    0.0000    0.0000    0.0000 C   0  0  0  0  0  0  0  0  0  0  0  0
    0.0000    0.0000    0.0000 O   0  0  0  0  0  0  0  0  0  0  0  0
    0.0000    0.0000    0.0000 N   0  0  0  0  0  0  0  0  0  0  0  0
    0.0000    0.0000    0.0000 C   0  0  0  0  0  0  0  0  0  0  0  0
    0.0000    0.0000    0.0000 C   0  0  0  0  0  0  0  0  0  0  0  0
    0.0000    0.0000    0.0000 C   0  0  0  0  0  0  0  0  0  0  0  0
    0.0000    0.0000    0.0000 C   0  0  0  0  0  0  0  0  0  0  0  0
    0.0000    0.0000    0.0000 N   0  0  0  0  0  0  0  0  0  0  0  0
    0.0000    0.0000    0.0000 C   0  0  0  0  0  0  0  0  0  0  0  0
    0.0000    0.0000    0.0000 N   0  0  0  0  0  0  0  0  0  0  0  0
    0.0000    0.0000    0.0000 C   0  0  0  0  0  0  0  0  0  0  0  0
    0.0000    0.0000    0.0000 N   0  0  0  0  0  0  0  0  0  0  0  0
    0.0000    0.0000    0.0000 C   0  0  0  0  0  0  0  0  0  0  0  0
    0.0000    0.0000    0.0000 C   0  0  0  0  0  0  0  0  0  0  0  0
    0.0000    0.0000    0.0000 C   0  0  0  0  0  0  0  0  0  0  0  0
    0.0000    0.0000    0.0000 C   0  0  0  0  0  0  0  0  0  0  0  0
    0.0000    0.0000    0.0000 N   0  0  0  0  0  0  0  0  0  0  0  0
    0.0000    0.0000    0.0000 C   0  0  0  0  0  0  0  0  0  0  0  0
    0.0000    0.0000    0.0000 O   0  0  0  0  0  0  0  0  0  0  0  0
    0.0000    0.0000    0.0000 N   0  0  0  0  0  0  0  0  0  0  0  0
    0.0000    0.0000    0.0000 C   0  0  0  0  0  0  0  0  0  0  0  0
    0.0000    0.0000    0.0000 C   0  0  0  0  0  0  0  0  0  0  0  0
    0.0000    0.0000    0.0000 C   0  0  0  0  0  0  0  0  0  0  0  0
    0.0000    0.0000    0.0000 N   0  0  0  0  0  0  0  0  0  0  0  0
    0.0000    0.0000    0.0000 N   0  0  0  0  0  0  0  0  0  0  0  0
    0.0000    0.0000    0.0000 C   0  0  0  0  0  0  0  0  0  0  0  0
    0.0000    0.0000    0.0000 C   0  0  0  0  0  0  0  0  0  0  0  0
    0.0000    0.0000    0.0000 C   0  0  0  0  0  0  0  0  0  0  0  0
    0.0000    0.0000    0.0000 C   0  0  0  0  0  0  0  0  0  0  0  0
    0.0000    0.0000    0.0000 C   0  0  0  0  0  0  0  0  0  0  0  0
    0.0000    0.0000    0.0000 N   0  0  0  0  0  0  0  0  0  0  0  0
    0.0000    0.0000    0.0000 C   0  0  0  0  0  0  0  0  0  0  0  0
    0.0000    0.0000    0.0000 C   0  0  0  0  0  0  0  0  0  0  0  0
    0.0000    0.0000    0.0000 C   0  0  0  0  0  0  0  0  0  0  0  0
    0.0000    0.0000    0.0000 C   0  0  0  0  0  0  0  0  0  0  0  0
    0.0000    0.0000    0.0000 C   0  0  0  0  0  0  0  0  0  0  0  0
    0.0000    0.0000    0.0000 C   0  0  0  0  0  0  0  0  0  0  0  0
    0.0000    0.0000    0.0000 C   0  0  0  0  0  0  0  0  0  0  0  0
    0.0000    0.0000    0.0000 C   0  0  0  0  0  0  0  0  0  0  0  0
    0.0000    0.0000    0.0000 C   0  0  0  0  0  0  0  0  0  0  0  0
  1  2  1  0
  2  3  1  0
  3  4  2  0
  3  5  1  0
  5  6  1  0
  6  7  2  0
  7  8  1  0
  8  9  2  0
  9 10  1  0
 10 11  2  0
 11 12  1  0
 12 13  2  0
 13 14  1  0
 14 15  1  0
 15 16  2  0
 16 17  1  0
 17 18  2  0
 18 19  1  0
 19 20  1  0
 20 21  2  0
 20 22  1  0
 22 23  1  0
 23 24  2  0
 24 25  1  0
 25 26  2  0
 26 27  1  0
 27 28  1  0
 28 29  2  0
 29 30  1  0
 30 31  2  0
 31 32  1  0
 32 33  1  0
 32 34  2  0
 25 35  1  0
 35 36  1  0
 35 37  1  0
 35 38  1  0
 18 39  1  0
 39 40  2  0
 13 41  1  0
 41 42  2  0
 42  6  1  0
 41  9  1  0
 40 15  1  0
 27 23  1  0
 34 28  1  0
M  END
>  <pIC50>  (591) 
6.95

>  <ChEMBL_ID>  (591) 
CHEMBL2403818

>  <document_journal>  (591) 
J. Med. Chem.

>  <bao_endpoint>  (591) 
BAO_0000190

>  <potential_duplicate>  (591) 
False

>  <uo_units>  (591) 
UO_0000065

>  <canonical_smiles>  (591) 
CCC(=O)Nc1ccc2ncnc(Nc3ccc(NC(=O)Nc4cc(nn4c5cccc(N)c5)C(C)(C)C)cc3)c2c1

>  <parent_molecule_chembl_id>  (591) 
CHEMBL2403818

>  <assay_type>  (591) 
B

>  <src_id>  (591) 
1

>  <ligand_efficiency>  (591) 
{u'le': u'0.23', u'bei': u'12.33', u'sei': u'4.58', u'lle': u'1.56'}

>  <standard_flag>  (591) 
True

>  <molecule_chembl_id>  (591) 
CHEMBL2403818

>  <target_organism>  (591) 
Homo sapiens

>  <standard_units>  (591) 
nM

>  <record_id>  (591) 
1907118

>  <document_chembl_id>  (591) 
CHEMBL2401695

>  <bao_format>  (591) 
BAO_0000019

>  <data_validity_description>  (591) 
None

>  <activity_id>  (591) 
13370913

>  <standard_type>  (591) 
IC50

>  <target_chembl_id>  (591) 
CHEMBL1862

>  <data_validity_comment>  (591) 
None

>  <published_value>  (591) 
112

>  <document_year>  (591) 
2013

>  <target_pref_name>  (591) 
Tyrosine-protein kinase ABL

>  <assay_chembl_id>  (591) 
CHEMBL2406231

>  <standard_relation>  (591) 
=

>  <assay_description>  (591) 
Inhibition of human wild-type ABL (Ser229 to Gln513)-mediated phosphorylation of biotinylated poly-Glu-Tyr expressed in Escherichia coli BL21(DE3) preincubated for 30 to 60 mins prior to substrate addition by TR-FRET assay

>  <published_relation>  (591) 
=

>  <standard_value>  (591) 
112

>  <qudt_units>  (591) 
http://www.openphacts.org/units/Nanomolar

>  <target_tax_id>  (591) 
9606

>  <bao_label>  (591) 
assay format

>  <published_units>  (591) 
nM

>  <pchembl_value>  (591) 
6.95

>  <published_type>  (591) 
IC50

>  <activity_comment>  (591) 
None

$$$$

     RDKit          

 55 62  0  0  0  0  0  0  0  0999 V2000
    0.0000    0.0000    0.0000 C   0  0  0  0  0  0  0  0  0  0  0  0
    0.0000    0.0000    0.0000 C   0  0  0  0  0  0  0  0  0  0  0  0
    0.0000    0.0000    0.0000 C   0  0  0  0  0  0  0  0  0  0  0  0
    0.0000    0.0000    0.0000 C   0  0  0  0  0  0  0  0  0  0  0  0
    0.0000    0.0000    0.0000 C   0  0  0  0  0  0  0  0  0  0  0  0
    0.0000    0.0000    0.0000 C   0  0  0  0  0  0  0  0  0  0  0  0
    0.0000    0.0000    0.0000 C   0  0  0  0  0  0  0  0  0  0  0  0
    0.0000    0.0000    0.0000 N   0  0  0  0  0  0  0  0  0  0  0  0
    0.0000    0.0000    0.0000 C   0  0  0  0  0  0  0  0  0  0  0  0
    0.0000    0.0000    0.0000 O   0  0  0  0  0  0  0  0  0  0  0  0
    0.0000    0.0000    0.0000 N   0  0  0  0  0  0  0  0  0  0  0  0
    0.0000    0.0000    0.0000 C   0  0  0  0  0  0  0  0  0  0  0  0
    0.0000    0.0000    0.0000 C   0  0  0  0  0  0  0  0  0  0  0  0
    0.0000    0.0000    0.0000 C   0  0  0  0  0  0  0  0  0  0  0  0
    0.0000    0.0000    0.0000 C   0  0  0  0  0  0  0  0  0  0  0  0
    0.0000    0.0000    0.0000 N   0  0  0  0  0  0  0  0  0  0  0  0
    0.0000    0.0000    0.0000 C   0  0  0  0  0  0  0  0  0  0  0  0
    0.0000    0.0000    0.0000 N   0  0  0  0  0  0  0  0  0  0  0  0
    0.0000    0.0000    0.0000 C   0  0  0  0  0  0  0  0  0  0  0  0
    0.0000    0.0000    0.0000 N   0  0  0  0  0  0  0  0  0  0  0  0
    0.0000    0.0000    0.0000 C   0  0  0  0  0  0  0  0  0  0  0  0
    0.0000    0.0000    0.0000 C   0  0  0  0  0  0  0  0  0  0  0  0
    0.0000    0.0000    0.0000 C   0  0  0  0  0  0  0  0  0  0  0  0
    0.0000    0.0000    0.0000 C   0  0  0  0  0  0  0  0  0  0  0  0
    0.0000    0.0000    0.0000 N   0  0  0  0  0  0  0  0  0  0  0  0
    0.0000    0.0000    0.0000 C   0  0  0  0  0  0  0  0  0  0  0  0
    0.0000    0.0000    0.0000 C   0  0  0  0  0  0  0  0  0  0  0  0
    0.0000    0.0000    0.0000 C   0  0  0  0  0  0  0  0  0  0  0  0
    0.0000    0.0000    0.0000 C   0  0  0  0  0  0  0  0  0  0  0  0
    0.0000    0.0000    0.0000 N   0  0  0  0  0  0  0  0  0  0  0  0
    0.0000    0.0000    0.0000 N   0  0  0  0  0  0  0  0  0  0  0  0
    0.0000    0.0000    0.0000 C   0  0  0  0  0  0  0  0  0  0  0  0
    0.0000    0.0000    0.0000 C   0  0  0  0  0  0  0  0  0  0  0  0
    0.0000    0.0000    0.0000 C   0  0  0  0  0  0  0  0  0  0  0  0
    0.0000    0.0000    0.0000 C   0  0  0  0  0  0  0  0  0  0  0  0
    0.0000    0.0000    0.0000 C   0  0  0  0  0  0  0  0  0  0  0  0
    0.0000    0.0000    0.0000 N   0  0  0  0  0  0  0  0  0  0  0  0
    0.0000    0.0000    0.0000 C   0  0  0  0  0  0  0  0  0  0  0  0
    0.0000    0.0000    0.0000 O   0  0  0  0  0  0  0  0  0  0  0  0
    0.0000    0.0000    0.0000 O   0  0  0  0  0  0  0  0  0  0  0  0
    0.0000    0.0000    0.0000 C   0  0  0  0  0  0  0  0  0  0  0  0
    0.0000    0.0000    0.0000 C   0  0  0  0  0  0  0  0  0  0  0  0
    0.0000    0.0000    0.0000 C   0  0  0  0  0  0  0  0  0  0  0  0
    0.0000    0.0000    0.0000 C   0  0  0  0  0  0  0  0  0  0  0  0
    0.0000    0.0000    0.0000 C   0  0  0  0  0  0  0  0  0  0  0  0
    0.0000    0.0000    0.0000 C   0  0  0  0  0  0  0  0  0  0  0  0
    0.0000    0.0000    0.0000 C   0  0  0  0  0  0  0  0  0  0  0  0
    0.0000    0.0000    0.0000 C   0  0  0  0  0  0  0  0  0  0  0  0
    0.0000    0.0000    0.0000 C   0  0  0  0  0  0  0  0  0  0  0  0
    0.0000    0.0000    0.0000 C   0  0  0  0  0  0  0  0  0  0  0  0
    0.0000    0.0000    0.0000 C   0  0  0  0  0  0  0  0  0  0  0  0
    0.0000    0.0000    0.0000 C   0  0  0  0  0  0  0  0  0  0  0  0
    0.0000    0.0000    0.0000 C   0  0  0  0  0  0  0  0  0  0  0  0
    0.0000    0.0000    0.0000 C   0  0  0  0  0  0  0  0  0  0  0  0
    0.0000    0.0000    0.0000 C   0  0  0  0  0  0  0  0  0  0  0  0
  1  2  1  0
  2  3  1  0
  2  4  1  0
  2  5  1  0
  5  6  1  0
  6  7  2  0
  7  8  1  0
  8  9  1  0
  9 10  2  0
  9 11  1  0
 11 12  1  0
 12 13  2  0
 13 14  1  0
 14 15  2  0
 15 16  1  0
 16 17  1  0
 17 18  2  0
 18 19  1  0
 19 20  2  0
 20 21  1  0
 21 22  2  0
 22 23  1  0
 23 24  2  0
 24 25  1  0
 24 26  1  0
 26 27  2  0
 15 28  1  0
 28 29  2  0
  7 30  1  0
 30 31  1  0
 30 32  1  0
 32 33  2  0
 33 34  1  0
 34 35  2  0
 35 36  1  0
 36 37  1  0
 37 38  1  0
 38 39  2  0
 38 40  1  0
 40 41  1  0
 41 42  1  0
 42 43  1  0
 43 44  2  0
 44 45  1  0
 45 46  2  0
 46 47  1  0
 47 48  2  0
 48 49  1  0
 49 50  2  0
 50 51  1  0
 51 52  2  0
 52 53  1  0
 53 54  2  0
 36 55  2  0
 31  5  2  0
 29 12  1  0
 27 17  1  0
 27 21  1  0
 55 32  1  0
 54 42  1  0
 48 43  1  0
 54 49  1  0
M  END
>  <pIC50>  (592) 
5.9

>  <ChEMBL_ID>  (592) 
CHEMBL2403817

>  <document_journal>  (592) 
J. Med. Chem.

>  <bao_endpoint>  (592) 
BAO_0000190

>  <potential_duplicate>  (592) 
False

>  <uo_units>  (592) 
UO_0000065

>  <canonical_smiles>  (592) 
CC(C)(C)c1cc(NC(=O)Nc2ccc(Nc3ncnc4ccc(N)cc34)cc2)n(n1)c5cccc(NC(=O)OCC6c7ccccc7c8ccccc68)c5

>  <parent_molecule_chembl_id>  (592) 
CHEMBL2403817

>  <assay_type>  (592) 
B

>  <src_id>  (592) 
1

>  <ligand_efficiency>  (592) 
{u'le': u'0.15', u'bei': u'8.08', u'sei': u'3.66', u'lle': u'-2.41'}

>  <standard_flag>  (592) 
True

>  <molecule_chembl_id>  (592) 
CHEMBL2403817

>  <target_organism>  (592) 
Homo sapiens

>  <standard_units>  (592) 
nM

>  <record_id>  (592) 
1907117

>  <document_chembl_id>  (592) 
CHEMBL2401695

>  <bao_format>  (592) 
BAO_0000019

>  <data_validity_description>  (592) 
None

>  <activity_id>  (592) 
13370914

>  <standard_type>  (592) 
IC50

>  <target_chembl_id>  (592) 
CHEMBL1862

>  <data_validity_comment>  (592) 
None

>  <published_value>  (592) 
1273

>  <document_year>  (592) 
2013

>  <target_pref_name>  (592) 
Tyrosine-protein kinase ABL

>  <assay_chembl_id>  (592) 
CHEMBL2406231

>  <standard_relation>  (592) 
=

>  <assay_description>  (592) 
Inhibition of human wild-type ABL (Ser229 to Gln513)-mediated phosphorylation of biotinylated poly-Glu-Tyr expressed in Escherichia coli BL21(DE3) preincubated for 30 to 60 mins prior to substrate addition by TR-FRET assay

>  <published_relation>  (592) 
=

>  <standard_value>  (592) 
1273

>  <qudt_units>  (592) 
http://www.openphacts.org/units/Nanomolar

>  <target_tax_id>  (592) 
9606

>  <bao_label>  (592) 
assay format

>  <published_units>  (592) 
nM

>  <pchembl_value>  (592) 
5.9

>  <published_type>  (592) 
IC50

>  <activity_comment>  (592) 
None

$$$$

     RDKit          

 37 41  0  0  0  0  0  0  0  0999 V2000
    0.0000    0.0000    0.0000 C   0  0  0  0  0  0  0  0  0  0  0  0
    0.0000    0.0000    0.0000 C   0  0  0  0  0  0  0  0  0  0  0  0
    0.0000    0.0000    0.0000 C   0  0  0  0  0  0  0  0  0  0  0  0
    0.0000    0.0000    0.0000 C   0  0  0  0  0  0  0  0  0  0  0  0
    0.0000    0.0000    0.0000 C   0  0  0  0  0  0  0  0  0  0  0  0
    0.0000    0.0000    0.0000 C   0  0  0  0  0  0  0  0  0  0  0  0
    0.0000    0.0000    0.0000 C   0  0  0  0  0  0  0  0  0  0  0  0
    0.0000    0.0000    0.0000 N   0  0  0  0  0  0  0  0  0  0  0  0
    0.0000    0.0000    0.0000 C   0  0  0  0  0  0  0  0  0  0  0  0
    0.0000    0.0000    0.0000 O   0  0  0  0  0  0  0  0  0  0  0  0
    0.0000    0.0000    0.0000 N   0  0  0  0  0  0  0  0  0  0  0  0
    0.0000    0.0000    0.0000 C   0  0  0  0  0  0  0  0  0  0  0  0
    0.0000    0.0000    0.0000 C   0  0  0  0  0  0  0  0  0  0  0  0
    0.0000    0.0000    0.0000 C   0  0  0  0  0  0  0  0  0  0  0  0
    0.0000    0.0000    0.0000 C   0  0  0  0  0  0  0  0  0  0  0  0
    0.0000    0.0000    0.0000 N   0  0  0  0  0  0  0  0  0  0  0  0
    0.0000    0.0000    0.0000 C   0  0  0  0  0  0  0  0  0  0  0  0
    0.0000    0.0000    0.0000 N   0  0  0  0  0  0  0  0  0  0  0  0
    0.0000    0.0000    0.0000 C   0  0  0  0  0  0  0  0  0  0  0  0
    0.0000    0.0000    0.0000 N   0  0  0  0  0  0  0  0  0  0  0  0
    0.0000    0.0000    0.0000 C   0  0  0  0  0  0  0  0  0  0  0  0
    0.0000    0.0000    0.0000 C   0  0  0  0  0  0  0  0  0  0  0  0
    0.0000    0.0000    0.0000 C   0  0  0  0  0  0  0  0  0  0  0  0
    0.0000    0.0000    0.0000 C   0  0  0  0  0  0  0  0  0  0  0  0
    0.0000    0.0000    0.0000 C   0  0  0  0  0  0  0  0  0  0  0  0
    0.0000    0.0000    0.0000 C   0  0  0  0  0  0  0  0  0  0  0  0
    0.0000    0.0000    0.0000 C   0  0  0  0  0  0  0  0  0  0  0  0
    0.0000    0.0000    0.0000 C   0  0  0  0  0  0  0  0  0  0  0  0
    0.0000    0.0000    0.0000 N   0  0  0  0  0  0  0  0  0  0  0  0
    0.0000    0.0000    0.0000 N   0  0  0  0  0  0  0  0  0  0  0  0
    0.0000    0.0000    0.0000 C   0  0  0  0  0  0  0  0  0  0  0  0
    0.0000    0.0000    0.0000 C   0  0  0  0  0  0  0  0  0  0  0  0
    0.0000    0.0000    0.0000 C   0  0  0  0  0  0  0  0  0  0  0  0
    0.0000    0.0000    0.0000 C   0  0  0  0  0  0  0  0  0  0  0  0
    0.0000    0.0000    0.0000 C   0  0  0  0  0  0  0  0  0  0  0  0
    0.0000    0.0000    0.0000 N   0  0  0  0  0  0  0  0  0  0  0  0
    0.0000    0.0000    0.0000 C   0  0  0  0  0  0  0  0  0  0  0  0
  1  2  1  0
  2  3  1  0
  2  4  1  0
  2  5  1  0
  5  6  1  0
  6  7  2  0
  7  8  1  0
  8  9  1  0
  9 10  2  0
  9 11  1  0
 11 12  1  0
 12 13  2  0
 13 14  1  0
 14 15  2  0
 15 16  1  0
 16 17  1  0
 17 18  2  0
 18 19  1  0
 19 20  2  0
 20 21  1  0
 21 22  2  0
 22 23  1  0
 23 24  2  0
 24 25  1  0
 25 26  2  0
 15 27  1  0
 27 28  2  0
  7 29  1  0
 29 30  1  0
 29 31  1  0
 31 32  2  0
 32 33  1  0
 33 34  2  0
 34 35  1  0
 35 36  1  0
 35 37  2  0
 30  5  2  0
 28 12  1  0
 26 17  1  0
 26 21  1  0
 37 31  1  0
M  END
>  <pIC50>  (593) 
7.4

>  <ChEMBL_ID>  (593) 
CHEMBL2403816

>  <document_journal>  (593) 
J. Med. Chem.

>  <bao_endpoint>  (593) 
BAO_0000190

>  <potential_duplicate>  (593) 
False

>  <uo_units>  (593) 
UO_0000065

>  <canonical_smiles>  (593) 
CC(C)(C)c1cc(NC(=O)Nc2ccc(Nc3ncnc4ccccc34)cc2)n(n1)c5cccc(N)c5

>  <parent_molecule_chembl_id>  (593) 
CHEMBL2403816

>  <assay_type>  (593) 
B

>  <src_id>  (593) 
1

>  <ligand_efficiency>  (593) 
{u'le': u'0.27', u'bei': u'15.02', u'sei': u'6.03', u'lle': u'1.8'}

>  <standard_flag>  (593) 
True

>  <molecule_chembl_id>  (593) 
CHEMBL2403816

>  <target_organism>  (593) 
Homo sapiens

>  <standard_units>  (593) 
nM

>  <record_id>  (593) 
1907116

>  <document_chembl_id>  (593) 
CHEMBL2401695

>  <bao_format>  (593) 
BAO_0000019

>  <data_validity_description>  (593) 
None

>  <activity_id>  (593) 
13370915

>  <standard_type>  (593) 
IC50

>  <target_chembl_id>  (593) 
CHEMBL1862

>  <data_validity_comment>  (593) 
None

>  <published_value>  (593) 
40

>  <document_year>  (593) 
2013

>  <target_pref_name>  (593) 
Tyrosine-protein kinase ABL

>  <assay_chembl_id>  (593) 
CHEMBL2406231

>  <standard_relation>  (593) 
=

>  <assay_description>  (593) 
Inhibition of human wild-type ABL (Ser229 to Gln513)-mediated phosphorylation of biotinylated poly-Glu-Tyr expressed in Escherichia coli BL21(DE3) preincubated for 30 to 60 mins prior to substrate addition by TR-FRET assay

>  <published_relation>  (593) 
=

>  <standard_value>  (593) 
40

>  <qudt_units>  (593) 
http://www.openphacts.org/units/Nanomolar

>  <target_tax_id>  (593) 
9606

>  <bao_label>  (593) 
assay format

>  <published_units>  (593) 
nM

>  <pchembl_value>  (593) 
7.4

>  <published_type>  (593) 
IC50

>  <activity_comment>  (593) 
None

$$$$

     RDKit          

 38 42  0  0  0  0  0  0  0  0999 V2000
    0.0000    0.0000    0.0000 C   0  0  0  0  0  0  0  0  0  0  0  0
    0.0000    0.0000    0.0000 C   0  0  0  0  0  0  0  0  0  0  0  0
    0.0000    0.0000    0.0000 C   0  0  0  0  0  0  0  0  0  0  0  0
    0.0000    0.0000    0.0000 C   0  0  0  0  0  0  0  0  0  0  0  0
    0.0000    0.0000    0.0000 C   0  0  0  0  0  0  0  0  0  0  0  0
    0.0000    0.0000    0.0000 C   0  0  0  0  0  0  0  0  0  0  0  0
    0.0000    0.0000    0.0000 C   0  0  0  0  0  0  0  0  0  0  0  0
    0.0000    0.0000    0.0000 N   0  0  0  0  0  0  0  0  0  0  0  0
    0.0000    0.0000    0.0000 C   0  0  0  0  0  0  0  0  0  0  0  0
    0.0000    0.0000    0.0000 O   0  0  0  0  0  0  0  0  0  0  0  0
    0.0000    0.0000    0.0000 N   0  0  0  0  0  0  0  0  0  0  0  0
    0.0000    0.0000    0.0000 C   0  0  0  0  0  0  0  0  0  0  0  0
    0.0000    0.0000    0.0000 C   0  0  0  0  0  0  0  0  0  0  0  0
    0.0000    0.0000    0.0000 C   0  0  0  0  0  0  0  0  0  0  0  0
    0.0000    0.0000    0.0000 C   0  0  0  0  0  0  0  0  0  0  0  0
    0.0000    0.0000    0.0000 N   0  0  0  0  0  0  0  0  0  0  0  0
    0.0000    0.0000    0.0000 C   0  0  0  0  0  0  0  0  0  0  0  0
    0.0000    0.0000    0.0000 N   0  0  0  0  0  0  0  0  0  0  0  0
    0.0000    0.0000    0.0000 C   0  0  0  0  0  0  0  0  0  0  0  0
    0.0000    0.0000    0.0000 N   0  0  0  0  0  0  0  0  0  0  0  0
    0.0000    0.0000    0.0000 C   0  0  0  0  0  0  0  0  0  0  0  0
    0.0000    0.0000    0.0000 C   0  0  0  0  0  0  0  0  0  0  0  0
    0.0000    0.0000    0.0000 C   0  0  0  0  0  0  0  0  0  0  0  0
    0.0000    0.0000    0.0000 C   0  0  0  0  0  0  0  0  0  0  0  0
    0.0000    0.0000    0.0000 N   0  0  0  0  0  0  0  0  0  0  0  0
    0.0000    0.0000    0.0000 C   0  0  0  0  0  0  0  0  0  0  0  0
    0.0000    0.0000    0.0000 C   0  0  0  0  0  0  0  0  0  0  0  0
    0.0000    0.0000    0.0000 C   0  0  0  0  0  0  0  0  0  0  0  0
    0.0000    0.0000    0.0000 C   0  0  0  0  0  0  0  0  0  0  0  0
    0.0000    0.0000    0.0000 N   0  0  0  0  0  0  0  0  0  0  0  0
    0.0000    0.0000    0.0000 N   0  0  0  0  0  0  0  0  0  0  0  0
    0.0000    0.0000    0.0000 C   0  0  0  0  0  0  0  0  0  0  0  0
    0.0000    0.0000    0.0000 C   0  0  0  0  0  0  0  0  0  0  0  0
    0.0000    0.0000    0.0000 C   0  0  0  0  0  0  0  0  0  0  0  0
    0.0000    0.0000    0.0000 C   0  0  0  0  0  0  0  0  0  0  0  0
    0.0000    0.0000    0.0000 C   0  0  0  0  0  0  0  0  0  0  0  0
    0.0000    0.0000    0.0000 N   0  0  0  0  0  0  0  0  0  0  0  0
    0.0000    0.0000    0.0000 C   0  0  0  0  0  0  0  0  0  0  0  0
  1  2  1  0
  2  3  1  0
  2  4  1  0
  2  5  1  0
  5  6  1  0
  6  7  2  0
  7  8  1  0
  8  9  1  0
  9 10  2  0
  9 11  1  0
 11 12  1  0
 12 13  2  0
 13 14  1  0
 14 15  2  0
 15 16  1  0
 16 17  1  0
 17 18  2  0
 18 19  1  0
 19 20  2  0
 20 21  1  0
 21 22  2  0
 22 23  1  0
 23 24  2  0
 24 25  1  0
 24 26  1  0
 26 27  2  0
 15 28  1  0
 28 29  2  0
  7 30  1  0
 30 31  1  0
 30 32  1  0
 32 33  2  0
 33 34  1  0
 34 35  2  0
 35 36  1  0
 36 37  1  0
 36 38  2  0
 31  5  2  0
 29 12  1  0
 27 17  1  0
 27 21  1  0
 38 32  1  0
M  END
>  <pIC50>  (594) 
7.14

>  <ChEMBL_ID>  (594) 
CHEMBL2403815

>  <document_journal>  (594) 
J. Med. Chem.

>  <bao_endpoint>  (594) 
BAO_0000190

>  <potential_duplicate>  (594) 
False

>  <uo_units>  (594) 
UO_0000065

>  <canonical_smiles>  (594) 
CC(C)(C)c1cc(NC(=O)Nc2ccc(Nc3ncnc4ccc(N)cc34)cc2)n(n1)c5cccc(N)c5

>  <parent_molecule_chembl_id>  (594) 
CHEMBL2403815

>  <assay_type>  (594) 
B

>  <src_id>  (594) 
1

>  <ligand_efficiency>  (594) 
{u'le': u'0.26', u'bei': u'14.06', u'sei': u'4.8', u'lle': u'2.28'}

>  <standard_flag>  (594) 
True

>  <molecule_chembl_id>  (594) 
CHEMBL2403815

>  <target_organism>  (594) 
Homo sapiens

>  <standard_units>  (594) 
nM

>  <record_id>  (594) 
1907115

>  <document_chembl_id>  (594) 
CHEMBL2401695

>  <bao_format>  (594) 
BAO_0000019

>  <data_validity_description>  (594) 
None

>  <activity_id>  (594) 
13370916

>  <standard_type>  (594) 
IC50

>  <target_chembl_id>  (594) 
CHEMBL1862

>  <data_validity_comment>  (594) 
None

>  <published_value>  (594) 
73

>  <document_year>  (594) 
2013

>  <target_pref_name>  (594) 
Tyrosine-protein kinase ABL

>  <assay_chembl_id>  (594) 
CHEMBL2406231

>  <standard_relation>  (594) 
=

>  <assay_description>  (594) 
Inhibition of human wild-type ABL (Ser229 to Gln513)-mediated phosphorylation of biotinylated poly-Glu-Tyr expressed in Escherichia coli BL21(DE3) preincubated for 30 to 60 mins prior to substrate addition by TR-FRET assay

>  <published_relation>  (594) 
=

>  <standard_value>  (594) 
73

>  <qudt_units>  (594) 
http://www.openphacts.org/units/Nanomolar

>  <target_tax_id>  (594) 
9606

>  <bao_label>  (594) 
assay format

>  <published_units>  (594) 
nM

>  <pchembl_value>  (594) 
7.14

>  <published_type>  (594) 
IC50

>  <activity_comment>  (594) 
None

$$$$

     RDKit          

 39 43  0  0  0  0  0  0  0  0999 V2000
    0.0000    0.0000    0.0000 C   0  0  0  0  0  0  0  0  0  0  0  0
    0.0000    0.0000    0.0000 C   0  0  0  0  0  0  0  0  0  0  0  0
    0.0000    0.0000    0.0000 C   0  0  0  0  0  0  0  0  0  0  0  0
    0.0000    0.0000    0.0000 C   0  0  0  0  0  0  0  0  0  0  0  0
    0.0000    0.0000    0.0000 C   0  0  0  0  0  0  0  0  0  0  0  0
    0.0000    0.0000    0.0000 C   0  0  0  0  0  0  0  0  0  0  0  0
    0.0000    0.0000    0.0000 C   0  0  0  0  0  0  0  0  0  0  0  0
    0.0000    0.0000    0.0000 N   0  0  0  0  0  0  0  0  0  0  0  0
    0.0000    0.0000    0.0000 C   0  0  0  0  0  0  0  0  0  0  0  0
    0.0000    0.0000    0.0000 O   0  0  0  0  0  0  0  0  0  0  0  0
    0.0000    0.0000    0.0000 N   0  0  0  0  0  0  0  0  0  0  0  0
    0.0000    0.0000    0.0000 C   0  0  0  0  0  0  0  0  0  0  0  0
    0.0000    0.0000    0.0000 C   0  0  0  0  0  0  0  0  0  0  0  0
    0.0000    0.0000    0.0000 C   0  0  0  0  0  0  0  0  0  0  0  0
    0.0000    0.0000    0.0000 C   0  0  0  0  0  0  0  0  0  0  0  0
    0.0000    0.0000    0.0000 N   0  0  0  0  0  0  0  0  0  0  0  0
    0.0000    0.0000    0.0000 C   0  0  0  0  0  0  0  0  0  0  0  0
    0.0000    0.0000    0.0000 N   0  0  0  0  0  0  0  0  0  0  0  0
    0.0000    0.0000    0.0000 C   0  0  0  0  0  0  0  0  0  0  0  0
    0.0000    0.0000    0.0000 N   0  0  0  0  0  0  0  0  0  0  0  0
    0.0000    0.0000    0.0000 C   0  0  0  0  0  0  0  0  0  0  0  0
    0.0000    0.0000    0.0000 C   0  0  0  0  0  0  0  0  0  0  0  0
    0.0000    0.0000    0.0000 C   0  0  0  0  0  0  0  0  0  0  0  0
    0.0000    0.0000    0.0000 C   0  0  0  0  0  0  0  0  0  0  0  0
    0.0000    0.0000    0.0000 C   0  0  0  0  0  0  0  0  0  0  0  0
    0.0000    0.0000    0.0000 C   0  0  0  0  0  0  0  0  0  0  0  0
    0.0000    0.0000    0.0000 C   0  0  0  0  0  0  0  0  0  0  0  0
    0.0000    0.0000    0.0000 C   0  0  0  0  0  0  0  0  0  0  0  0
    0.0000    0.0000    0.0000 N   0  0  0  0  0  0  0  0  0  0  0  0
    0.0000    0.0000    0.0000 N   0  0  0  0  0  0  0  0  0  0  0  0
    0.0000    0.0000    0.0000 C   0  0  0  0  0  0  0  0  0  0  0  0
    0.0000    0.0000    0.0000 C   0  0  0  0  0  0  0  0  0  0  0  0
    0.0000    0.0000    0.0000 C   0  0  0  0  0  0  0  0  0  0  0  0
    0.0000    0.0000    0.0000 C   0  0  0  0  0  0  0  0  0  0  0  0
    0.0000    0.0000    0.0000 C   0  0  0  0  0  0  0  0  0  0  0  0
    0.0000    0.0000    0.0000 C   0  0  0  0  0  0  0  0  0  0  0  0
    0.0000    0.0000    0.0000 N   0  0  0  0  0  0  0  0  0  0  0  0
    0.0000    0.0000    0.0000 O   0  0  0  0  0  0  0  0  0  0  0  0
    0.0000    0.0000    0.0000 O   0  0  0  0  0  0  0  0  0  0  0  0
  1  2  1  0
  2  3  1  0
  2  4  1  0
  2  5  1  0
  5  6  1  0
  6  7  2  0
  7  8  1  0
  8  9  1  0
  9 10  2  0
  9 11  1  0
 11 12  1  0
 12 13  2  0
 13 14  1  0
 14 15  2  0
 15 16  1  0
 16 17  1  0
 17 18  2  0
 18 19  1  0
 19 20  2  0
 20 21  1  0
 21 22  2  0
 22 23  1  0
 23 24  2  0
 24 25  1  0
 25 26  2  0
 15 27  1  0
 27 28  2  0
  7 29  1  0
 29 30  1  0
 29 31  1  0
 31 32  2  0
 32 33  1  0
 33 34  2  0
 34 35  1  0
 35 36  2  0
 35 37  1  0
 37 38  2  0
 37 39  1  0
 30  5  2  0
 28 12  1  0
 26 17  1  0
 26 21  1  0
 36 31  1  0
M  CHG  2  37   1  39  -1
M  END
>  <pIC50>  (595) 
7.38

>  <ChEMBL_ID>  (595) 
CHEMBL2403814

>  <document_journal>  (595) 
J. Med. Chem.

>  <bao_endpoint>  (595) 
BAO_0000190

>  <potential_duplicate>  (595) 
False

>  <uo_units>  (595) 
UO_0000065

>  <canonical_smiles>  (595) 
CC(C)(C)c1cc(NC(=O)Nc2ccc(Nc3ncnc4ccccc34)cc2)n(n1)c5cccc(c5)[N+](=O)[O-]

>  <parent_molecule_chembl_id>  (595) 
CHEMBL2403814

>  <assay_type>  (595) 
B

>  <src_id>  (595) 
1

>  <ligand_efficiency>  (595) 
{u'le': u'0.26', u'bei': u'14.12', u'sei': u'5.17', u'lle': u'1.14'}

>  <standard_flag>  (595) 
True

>  <molecule_chembl_id>  (595) 
CHEMBL2403814

>  <target_organism>  (595) 
Homo sapiens

>  <standard_units>  (595) 
nM

>  <record_id>  (595) 
1907114

>  <document_chembl_id>  (595) 
CHEMBL2401695

>  <bao_format>  (595) 
BAO_0000019

>  <data_validity_description>  (595) 
None

>  <activity_id>  (595) 
13370917

>  <standard_type>  (595) 
IC50

>  <target_chembl_id>  (595) 
CHEMBL1862

>  <data_validity_comment>  (595) 
None

>  <published_value>  (595) 
42

>  <document_year>  (595) 
2013

>  <target_pref_name>  (595) 
Tyrosine-protein kinase ABL

>  <assay_chembl_id>  (595) 
CHEMBL2406231

>  <standard_relation>  (595) 
=

>  <assay_description>  (595) 
Inhibition of human wild-type ABL (Ser229 to Gln513)-mediated phosphorylation of biotinylated poly-Glu-Tyr expressed in Escherichia coli BL21(DE3) preincubated for 30 to 60 mins prior to substrate addition by TR-FRET assay

>  <published_relation>  (595) 
=

>  <standard_value>  (595) 
42

>  <qudt_units>  (595) 
http://www.openphacts.org/units/Nanomolar

>  <target_tax_id>  (595) 
9606

>  <bao_label>  (595) 
assay format

>  <published_units>  (595) 
nM

>  <pchembl_value>  (595) 
7.38

>  <published_type>  (595) 
IC50

>  <activity_comment>  (595) 
None

$$$$

     RDKit          

 42 46  0  0  0  0  0  0  0  0999 V2000
    0.0000    0.0000    0.0000 C   0  0  0  0  0  0  0  0  0  0  0  0
    0.0000    0.0000    0.0000 C   0  0  0  0  0  0  0  0  0  0  0  0
    0.0000    0.0000    0.0000 C   0  0  0  0  0  0  0  0  0  0  0  0
    0.0000    0.0000    0.0000 C   0  0  0  0  0  0  0  0  0  0  0  0
    0.0000    0.0000    0.0000 C   0  0  0  0  0  0  0  0  0  0  0  0
    0.0000    0.0000    0.0000 C   0  0  0  0  0  0  0  0  0  0  0  0
    0.0000    0.0000    0.0000 C   0  0  0  0  0  0  0  0  0  0  0  0
    0.0000    0.0000    0.0000 N   0  0  0  0  0  0  0  0  0  0  0  0
    0.0000    0.0000    0.0000 C   0  0  0  0  0  0  0  0  0  0  0  0
    0.0000    0.0000    0.0000 O   0  0  0  0  0  0  0  0  0  0  0  0
    0.0000    0.0000    0.0000 N   0  0  0  0  0  0  0  0  0  0  0  0
    0.0000    0.0000    0.0000 C   0  0  0  0  0  0  0  0  0  0  0  0
    0.0000    0.0000    0.0000 C   0  0  0  0  0  0  0  0  0  0  0  0
    0.0000    0.0000    0.0000 C   0  0  0  0  0  0  0  0  0  0  0  0
    0.0000    0.0000    0.0000 C   0  0  0  0  0  0  0  0  0  0  0  0
    0.0000    0.0000    0.0000 N   0  0  0  0  0  0  0  0  0  0  0  0
    0.0000    0.0000    0.0000 C   0  0  0  0  0  0  0  0  0  0  0  0
    0.0000    0.0000    0.0000 N   0  0  0  0  0  0  0  0  0  0  0  0
    0.0000    0.0000    0.0000 C   0  0  0  0  0  0  0  0  0  0  0  0
    0.0000    0.0000    0.0000 N   0  0  0  0  0  0  0  0  0  0  0  0
    0.0000    0.0000    0.0000 C   0  0  0  0  0  0  0  0  0  0  0  0
    0.0000    0.0000    0.0000 C   0  0  0  0  0  0  0  0  0  0  0  0
    0.0000    0.0000    0.0000 C   0  0  0  0  0  0  0  0  0  0  0  0
    0.0000    0.0000    0.0000 C   0  0  0  0  0  0  0  0  0  0  0  0
    0.0000    0.0000    0.0000 C   0  0  0  0  0  0  0  0  0  0  0  0
    0.0000    0.0000    0.0000 C   0  0  0  0  0  0  0  0  0  0  0  0
    0.0000    0.0000    0.0000 N   0  0  0  0  0  0  0  0  0  0  0  0
    0.0000    0.0000    0.0000 O   0  0  0  0  0  0  0  0  0  0  0  0
    0.0000    0.0000    0.0000 O   0  0  0  0  0  0  0  0  0  0  0  0
    0.0000    0.0000    0.0000 C   0  0  0  0  0  0  0  0  0  0  0  0
    0.0000    0.0000    0.0000 C   0  0  0  0  0  0  0  0  0  0  0  0
    0.0000    0.0000    0.0000 N   0  0  0  0  0  0  0  0  0  0  0  0
    0.0000    0.0000    0.0000 N   0  0  0  0  0  0  0  0  0  0  0  0
    0.0000    0.0000    0.0000 C   0  0  0  0  0  0  0  0  0  0  0  0
    0.0000    0.0000    0.0000 C   0  0  0  0  0  0  0  0  0  0  0  0
    0.0000    0.0000    0.0000 C   0  0  0  0  0  0  0  0  0  0  0  0
    0.0000    0.0000    0.0000 C   0  0  0  0  0  0  0  0  0  0  0  0
    0.0000    0.0000    0.0000 C   0  0  0  0  0  0  0  0  0  0  0  0
    0.0000    0.0000    0.0000 C   0  0  0  0  0  0  0  0  0  0  0  0
    0.0000    0.0000    0.0000 N   0  0  0  0  0  0  0  0  0  0  0  0
    0.0000    0.0000    0.0000 O   0  0  0  0  0  0  0  0  0  0  0  0
    0.0000    0.0000    0.0000 O   0  0  0  0  0  0  0  0  0  0  0  0
  1  2  1  0
  2  3  1  0
  2  4  1  0
  2  5  1  0
  5  6  1  0
  6  7  2  0
  7  8  1  0
  8  9  1  0
  9 10  2  0
  9 11  1  0
 11 12  1  0
 12 13  2  0
 13 14  1  0
 14 15  2  0
 15 16  1  0
 16 17  1  0
 17 18  2  0
 18 19  1  0
 19 20  2  0
 20 21  1  0
 21 22  2  0
 22 23  1  0
 23 24  2  0
 24 25  1  0
 25 26  2  0
 24 27  1  0
 27 28  2  0
 27 29  1  0
 15 30  1  0
 30 31  2  0
  7 32  1  0
 32 33  1  0
 32 34  1  0
 34 35  2  0
 35 36  1  0
 36 37  2  0
 37 38  1  0
 38 39  2  0
 38 40  1  0
 40 41  2  0
 40 42  1  0
 33  5  2  0
 31 12  1  0
 26 17  1  0
 26 21  1  0
 39 34  1  0
M  CHG  4  27   1  29  -1  40   1  42  -1
M  END
>  <pIC50>  (596) 
6.8

>  <ChEMBL_ID>  (596) 
CHEMBL2403813

>  <document_journal>  (596) 
J. Med. Chem.

>  <bao_endpoint>  (596) 
BAO_0000190

>  <potential_duplicate>  (596) 
False

>  <uo_units>  (596) 
UO_0000065

>  <canonical_smiles>  (596) 
CC(C)(C)c1cc(NC(=O)Nc2ccc(Nc3ncnc4ccc(cc34)[N+](=O)[O-])cc2)n(n1)c5cccc(c5)[N+](=O)[O-]

>  <parent_molecule_chembl_id>  (596) 
CHEMBL2403813

>  <assay_type>  (596) 
B

>  <src_id>  (596) 
1

>  <ligand_efficiency>  (596) 
{u'le': u'0.22', u'bei': u'11.99', u'sei': u'3.61', u'lle': u'0.66'}

>  <standard_flag>  (596) 
True

>  <molecule_chembl_id>  (596) 
CHEMBL2403813

>  <target_organism>  (596) 
Homo sapiens

>  <standard_units>  (596) 
nM

>  <record_id>  (596) 
1907113

>  <document_chembl_id>  (596) 
CHEMBL2401695

>  <bao_format>  (596) 
BAO_0000019

>  <data_validity_description>  (596) 
None

>  <activity_id>  (596) 
13370918

>  <standard_type>  (596) 
IC50

>  <target_chembl_id>  (596) 
CHEMBL1862

>  <data_validity_comment>  (596) 
None

>  <published_value>  (596) 
157

>  <document_year>  (596) 
2013

>  <target_pref_name>  (596) 
Tyrosine-protein kinase ABL

>  <assay_chembl_id>  (596) 
CHEMBL2406231

>  <standard_relation>  (596) 
=

>  <assay_description>  (596) 
Inhibition of human wild-type ABL (Ser229 to Gln513)-mediated phosphorylation of biotinylated poly-Glu-Tyr expressed in Escherichia coli BL21(DE3) preincubated for 30 to 60 mins prior to substrate addition by TR-FRET assay

>  <published_relation>  (596) 
=

>  <standard_value>  (596) 
157

>  <qudt_units>  (596) 
http://www.openphacts.org/units/Nanomolar

>  <target_tax_id>  (596) 
9606

>  <bao_label>  (596) 
assay format

>  <published_units>  (596) 
nM

>  <pchembl_value>  (596) 
6.8

>  <published_type>  (596) 
IC50

>  <activity_comment>  (596) 
None

$$$$

     RDKit          

 31 34  0  0  0  0  0  0  0  0999 V2000
    0.0000    0.0000    0.0000 O   0  0  0  0  0  0  0  0  0  0  0  0
    0.0000    0.0000    0.0000 C   0  0  0  0  0  0  0  0  0  0  0  0
    0.0000    0.0000    0.0000 C   0  0  0  0  0  0  0  0  0  0  0  0
    0.0000    0.0000    0.0000 C   0  0  0  0  0  0  0  0  0  0  0  0
    0.0000    0.0000    0.0000 O   0  0  0  0  0  0  0  0  0  0  0  0
    0.0000    0.0000    0.0000 C   0  0  0  0  0  0  0  0  0  0  0  0
    0.0000    0.0000    0.0000 C   0  0  0  0  0  0  0  0  0  0  0  0
    0.0000    0.0000    0.0000 O   0  0  0  0  0  0  0  0  0  0  0  0
    0.0000    0.0000    0.0000 N   0  0  0  0  0  0  0  0  0  0  0  0
    0.0000    0.0000    0.0000 C   0  0  0  0  0  0  0  0  0  0  0  0
    0.0000    0.0000    0.0000 C   0  0  0  0  0  0  0  0  0  0  0  0
    0.0000    0.0000    0.0000 N   0  0  0  0  0  0  0  0  0  0  0  0
    0.0000    0.0000    0.0000 C   0  0  0  0  0  0  0  0  0  0  0  0
    0.0000    0.0000    0.0000 C   0  0  0  0  0  0  0  0  0  0  0  0
    0.0000    0.0000    0.0000 O   0  0  0  0  0  0  0  0  0  0  0  0
    0.0000    0.0000    0.0000 C   0  0  0  0  0  0  0  0  0  0  0  0
    0.0000    0.0000    0.0000 C   0  0  0  0  0  0  0  0  0  0  0  0
    0.0000    0.0000    0.0000 C   0  0  0  0  0  0  0  0  0  0  0  0
    0.0000    0.0000    0.0000 C   0  0  0  0  0  0  0  0  0  0  0  0
    0.0000    0.0000    0.0000 O   0  0  0  0  0  0  0  0  0  0  0  0
    0.0000    0.0000    0.0000 C   0  0  0  0  0  0  0  0  0  0  0  0
    0.0000    0.0000    0.0000 C   0  0  0  0  0  0  0  0  0  0  0  0
    0.0000    0.0000    0.0000 C   0  0  0  0  0  0  0  0  0  0  0  0
    0.0000    0.0000    0.0000 O   0  0  0  0  0  0  0  0  0  0  0  0
    0.0000    0.0000    0.0000 C   0  0  0  0  0  0  0  0  0  0  0  0
    0.0000    0.0000    0.0000 C   0  0  0  0  0  0  0  0  0  0  0  0
    0.0000    0.0000    0.0000 C   0  0  0  0  0  0  0  0  0  0  0  0
    0.0000    0.0000    0.0000 C   0  0  0  0  0  0  0  0  0  0  0  0
    0.0000    0.0000    0.0000 C   0  0  0  0  0  0  0  0  0  0  0  0
    0.0000    0.0000    0.0000 C   0  0  0  0  0  0  0  0  0  0  0  0
    0.0000    0.0000    0.0000 C   0  0  0  0  0  0  0  0  0  0  0  0
  1  2  1  0
  2  3  2  0
  3  4  1  0
  4  5  1  0
  5  6  1  0
  6  7  1  0
  7  8  2  0
  7  9  1  0
  9 10  1  0
 10 11  1  0
 11 12  1  0
 12 13  1  0
 13 14  1  0
 14 15  1  0
 15 16  1  0
 16 17  1  0
  4 18  2  0
 18 19  1  0
 19 20  1  0
 20 21  1  0
 21 22  2  0
 22 23  1  0
 23 24  2  0
 23 25  1  0
 21 26  1  0
 26 27  2  0
 27 28  1  0
 28 29  2  0
 29 30  1  0
 30 31  2  0
 25  2  1  0
 17 12  1  0
 25 19  2  0
 31 26  1  0
M  END
>  <pIC50>  (597) 
5.37

>  <ChEMBL_ID>  (597) 
CHEMBL2408506

>  <document_journal>  (597) 
Bioorg. Med. Chem. Lett.

>  <bao_endpoint>  (597) 
BAO_0000190

>  <potential_duplicate>  (597) 
False

>  <uo_units>  (597) 
UO_0000065

>  <canonical_smiles>  (597) 
Oc1cc(OCC(=O)NCCN2CCOCC2)cc3OC(=CC(=O)c13)c4ccccc4

>  <parent_molecule_chembl_id>  (597) 
CHEMBL2408506

>  <assay_type>  (597) 
B

>  <src_id>  (597) 
1

>  <ligand_efficiency>  (597) 
{u'le': u'0.24', u'bei': u'12.64', u'sei': u'5.51', u'lle': u'3.61'}

>  <standard_flag>  (597) 
True

>  <molecule_chembl_id>  (597) 
CHEMBL2408506

>  <target_organism>  (597) 
Homo sapiens

>  <standard_units>  (597) 
nM

>  <record_id>  (597) 
1908964

>  <document_chembl_id>  (597) 
CHEMBL2406924

>  <bao_format>  (597) 
BAO_0000357

>  <data_validity_description>  (597) 
None

>  <activity_id>  (597) 
13396074

>  <standard_type>  (597) 
IC50

>  <target_chembl_id>  (597) 
CHEMBL1862

>  <data_validity_comment>  (597) 
None

>  <published_value>  (597) 
4.31

>  <document_year>  (597) 
2013

>  <target_pref_name>  (597) 
Tyrosine-protein kinase ABL

>  <assay_chembl_id>  (597) 
CHEMBL2411905

>  <standard_relation>  (597) 
=

>  <assay_description>  (597) 
Inhibition of wild-type ABL1 (unknown origin)

>  <published_relation>  (597) 
=

>  <standard_value>  (597) 
4310

>  <qudt_units>  (597) 
http://www.openphacts.org/units/Nanomolar

>  <target_tax_id>  (597) 
9606

>  <bao_label>  (597) 
single protein format

>  <published_units>  (597) 
uM

>  <pchembl_value>  (597) 
5.37

>  <published_type>  (597) 
IC50

>  <activity_comment>  (597) 
None

$$$$

     RDKit          

 30 33  0  0  0  0  0  0  0  0999 V2000
    0.0000    0.0000    0.0000 O   0  0  0  0  0  0  0  0  0  0  0  0
    0.0000    0.0000    0.0000 C   0  0  0  0  0  0  0  0  0  0  0  0
    0.0000    0.0000    0.0000 C   0  0  0  0  0  0  0  0  0  0  0  0
    0.0000    0.0000    0.0000 C   0  0  0  0  0  0  0  0  0  0  0  0
    0.0000    0.0000    0.0000 O   0  0  0  0  0  0  0  0  0  0  0  0
    0.0000    0.0000    0.0000 C   0  0  0  0  0  0  0  0  0  0  0  0
    0.0000    0.0000    0.0000 C   0  0  0  0  0  0  0  0  0  0  0  0
    0.0000    0.0000    0.0000 O   0  0  0  0  0  0  0  0  0  0  0  0
    0.0000    0.0000    0.0000 N   0  0  0  0  0  0  0  0  0  0  0  0
    0.0000    0.0000    0.0000 C   0  0  0  0  0  0  0  0  0  0  0  0
    0.0000    0.0000    0.0000 C   0  0  0  0  0  0  0  0  0  0  0  0
    0.0000    0.0000    0.0000 C   0  0  0  0  0  0  0  0  0  0  0  0
    0.0000    0.0000    0.0000 C   0  0  0  0  0  0  0  0  0  0  0  0
    0.0000    0.0000    0.0000 C   0  0  0  0  0  0  0  0  0  0  0  0
    0.0000    0.0000    0.0000 C   0  0  0  0  0  0  0  0  0  0  0  0
    0.0000    0.0000    0.0000 C   0  0  0  0  0  0  0  0  0  0  0  0
    0.0000    0.0000    0.0000 C   0  0  0  0  0  0  0  0  0  0  0  0
    0.0000    0.0000    0.0000 C   0  0  0  0  0  0  0  0  0  0  0  0
    0.0000    0.0000    0.0000 O   0  0  0  0  0  0  0  0  0  0  0  0
    0.0000    0.0000    0.0000 C   0  0  0  0  0  0  0  0  0  0  0  0
    0.0000    0.0000    0.0000 C   0  0  0  0  0  0  0  0  0  0  0  0
    0.0000    0.0000    0.0000 C   0  0  0  0  0  0  0  0  0  0  0  0
    0.0000    0.0000    0.0000 O   0  0  0  0  0  0  0  0  0  0  0  0
    0.0000    0.0000    0.0000 C   0  0  0  0  0  0  0  0  0  0  0  0
    0.0000    0.0000    0.0000 C   0  0  0  0  0  0  0  0  0  0  0  0
    0.0000    0.0000    0.0000 C   0  0  0  0  0  0  0  0  0  0  0  0
    0.0000    0.0000    0.0000 C   0  0  0  0  0  0  0  0  0  0  0  0
    0.0000    0.0000    0.0000 C   0  0  0  0  0  0  0  0  0  0  0  0
    0.0000    0.0000    0.0000 C   0  0  0  0  0  0  0  0  0  0  0  0
    0.0000    0.0000    0.0000 C   0  0  0  0  0  0  0  0  0  0  0  0
  1  2  1  0
  2  3  2  0
  3  4  1  0
  4  5  1  0
  5  6  1  0
  6  7  1  0
  7  8  2  0
  7  9  1  0
  9 10  1  0
 10 11  1  0
 11 12  2  0
 12 13  1  0
 13 14  2  0
 14 15  1  0
 15 16  2  0
  4 17  2  0
 17 18  1  0
 18 19  1  0
 19 20  1  0
 20 21  2  0
 21 22  1  0
 22 23  2  0
 22 24  1  0
 20 25  1  0
 25 26  2  0
 26 27  1  0
 27 28  2  0
 28 29  1  0
 29 30  2  0
 24  2  1  0
 16 11  1  0
 24 18  2  0
 30 25  1  0
M  END
>  <pIC50>  (598) 
5.64

>  <ChEMBL_ID>  (598) 
CHEMBL2408505

>  <document_journal>  (598) 
Bioorg. Med. Chem. Lett.

>  <bao_endpoint>  (598) 
BAO_0000190

>  <potential_duplicate>  (598) 
False

>  <uo_units>  (598) 
UO_0000065

>  <canonical_smiles>  (598) 
Oc1cc(OCC(=O)NCc2ccccc2)cc3OC(=CC(=O)c13)c4ccccc4

>  <parent_molecule_chembl_id>  (598) 
CHEMBL2408505

>  <assay_type>  (598) 
B

>  <src_id>  (598) 
1

>  <ligand_efficiency>  (598) 
{u'le': u'0.26', u'bei': u'14.06', u'sei': u'6.65', u'lle': u'2.12'}

>  <standard_flag>  (598) 
True

>  <molecule_chembl_id>  (598) 
CHEMBL2408505

>  <target_organism>  (598) 
Homo sapiens

>  <standard_units>  (598) 
nM

>  <record_id>  (598) 
1908963

>  <document_chembl_id>  (598) 
CHEMBL2406924

>  <bao_format>  (598) 
BAO_0000357

>  <data_validity_description>  (598) 
None

>  <activity_id>  (598) 
13396075

>  <standard_type>  (598) 
IC50

>  <target_chembl_id>  (598) 
CHEMBL1862

>  <data_validity_comment>  (598) 
None

>  <published_value>  (598) 
2.27

>  <document_year>  (598) 
2013

>  <target_pref_name>  (598) 
Tyrosine-protein kinase ABL

>  <assay_chembl_id>  (598) 
CHEMBL2411905

>  <standard_relation>  (598) 
=

>  <assay_description>  (598) 
Inhibition of wild-type ABL1 (unknown origin)

>  <published_relation>  (598) 
=

>  <standard_value>  (598) 
2270

>  <qudt_units>  (598) 
http://www.openphacts.org/units/Nanomolar

>  <target_tax_id>  (598) 
9606

>  <bao_label>  (598) 
single protein format

>  <published_units>  (598) 
uM

>  <pchembl_value>  (598) 
5.64

>  <published_type>  (598) 
IC50

>  <activity_comment>  (598) 
None

$$$$

     RDKit          

 31 34  0  0  0  0  0  0  0  0999 V2000
    0.0000    0.0000    0.0000 C   0  0  0  0  0  0  0  0  0  0  0  0
    0.0000    0.0000    0.0000 O   0  0  0  0  0  0  0  0  0  0  0  0
    0.0000    0.0000    0.0000 C   0  0  0  0  0  0  0  0  0  0  0  0
    0.0000    0.0000    0.0000 C   0  0  0  0  0  0  0  0  0  0  0  0
    0.0000    0.0000    0.0000 C   0  0  0  0  0  0  0  0  0  0  0  0
    0.0000    0.0000    0.0000 C   0  0  0  0  0  0  0  0  0  0  0  0
    0.0000    0.0000    0.0000 C   0  0  0  0  0  0  0  0  0  0  0  0
    0.0000    0.0000    0.0000 N   0  0  0  0  0  0  0  0  0  0  0  0
    0.0000    0.0000    0.0000 C   0  0  0  0  0  0  0  0  0  0  0  0
    0.0000    0.0000    0.0000 O   0  0  0  0  0  0  0  0  0  0  0  0
    0.0000    0.0000    0.0000 C   0  0  0  0  0  0  0  0  0  0  0  0
    0.0000    0.0000    0.0000 O   0  0  0  0  0  0  0  0  0  0  0  0
    0.0000    0.0000    0.0000 C   0  0  0  0  0  0  0  0  0  0  0  0
    0.0000    0.0000    0.0000 C   0  0  0  0  0  0  0  0  0  0  0  0
    0.0000    0.0000    0.0000 C   0  0  0  0  0  0  0  0  0  0  0  0
    0.0000    0.0000    0.0000 O   0  0  0  0  0  0  0  0  0  0  0  0
    0.0000    0.0000    0.0000 C   0  0  0  0  0  0  0  0  0  0  0  0
    0.0000    0.0000    0.0000 C   0  0  0  0  0  0  0  0  0  0  0  0
    0.0000    0.0000    0.0000 O   0  0  0  0  0  0  0  0  0  0  0  0
    0.0000    0.0000    0.0000 C   0  0  0  0  0  0  0  0  0  0  0  0
    0.0000    0.0000    0.0000 C   0  0  0  0  0  0  0  0  0  0  0  0
    0.0000    0.0000    0.0000 O   0  0  0  0  0  0  0  0  0  0  0  0
    0.0000    0.0000    0.0000 C   0  0  0  0  0  0  0  0  0  0  0  0
    0.0000    0.0000    0.0000 C   0  0  0  0  0  0  0  0  0  0  0  0
    0.0000    0.0000    0.0000 C   0  0  0  0  0  0  0  0  0  0  0  0
    0.0000    0.0000    0.0000 C   0  0  0  0  0  0  0  0  0  0  0  0
    0.0000    0.0000    0.0000 C   0  0  0  0  0  0  0  0  0  0  0  0
    0.0000    0.0000    0.0000 C   0  0  0  0  0  0  0  0  0  0  0  0
    0.0000    0.0000    0.0000 C   0  0  0  0  0  0  0  0  0  0  0  0
    0.0000    0.0000    0.0000 C   0  0  0  0  0  0  0  0  0  0  0  0
    0.0000    0.0000    0.0000 C   0  0  0  0  0  0  0  0  0  0  0  0
  1  2  1  0
  2  3  1  0
  3  4  2  0
  4  5  1  0
  5  6  2  0
  6  7  1  0
  7  8  1  0
  8  9  1  0
  9 10  2  0
  9 11  1  0
 11 12  1  0
 12 13  1  0
 13 14  2  0
 14 15  1  0
 15 16  1  0
 15 17  2  0
 17 18  1  0
 18 19  2  0
 18 20  1  0
 20 21  2  0
 21 22  1  0
 22 23  1  0
 23 24  2  0
 21 25  1  0
 25 26  2  0
 26 27  1  0
 27 28  2  0
 28 29  1  0
 29 30  2  0
  7 31  2  0
 31  3  1  0
 24 13  1  0
 23 17  1  0
 30 25  1  0
M  END
>  <pIC50>  (599) 
6.09

>  <ChEMBL_ID>  (599) 
CHEMBL2408504

>  <document_journal>  (599) 
Bioorg. Med. Chem. Lett.

>  <bao_endpoint>  (599) 
BAO_0000190

>  <potential_duplicate>  (599) 
False

>  <uo_units>  (599) 
UO_0000065

>  <canonical_smiles>  (599) 
COc1cccc(NC(=O)COc2cc(O)c3C(=O)C=C(Oc3c2)c4ccccc4)c1

>  <parent_molecule_chembl_id>  (599) 
CHEMBL2408504

>  <assay_type>  (599) 
B

>  <src_id>  (599) 
1

>  <ligand_efficiency>  (599) 
{u'le': u'0.27', u'bei': u'14.58', u'sei': u'6.47', u'lle': u'2.59'}

>  <standard_flag>  (599) 
True

>  <molecule_chembl_id>  (599) 
CHEMBL2408504

>  <target_organism>  (599) 
Homo sapiens

>  <standard_units>  (599) 
nM

>  <record_id>  (599) 
1908962

>  <document_chembl_id>  (599) 
CHEMBL2406924

>  <bao_format>  (599) 
BAO_0000357

>  <data_validity_description>  (599) 
None

>  <activity_id>  (599) 
13396076

>  <standard_type>  (599) 
IC50

>  <target_chembl_id>  (599) 
CHEMBL1862

>  <data_validity_comment>  (599) 
None

>  <published_value>  (599) 
0.82

>  <document_year>  (599) 
2013

>  <target_pref_name>  (599) 
Tyrosine-protein kinase ABL

>  <assay_chembl_id>  (599) 
CHEMBL2411905

>  <standard_relation>  (599) 
=

>  <assay_description>  (599) 
Inhibition of wild-type ABL1 (unknown origin)

>  <published_relation>  (599) 
=

>  <standard_value>  (599) 
820

>  <qudt_units>  (599) 
http://www.openphacts.org/units/Nanomolar

>  <target_tax_id>  (599) 
9606

>  <bao_label>  (599) 
single protein format

>  <published_units>  (599) 
uM

>  <pchembl_value>  (599) 
6.09

>  <published_type>  (599) 
IC50

>  <activity_comment>  (599) 
None

$$$$

     RDKit          

 30 33  0  0  0  0  0  0  0  0999 V2000
    0.0000    0.0000    0.0000 O   0  0  0  0  0  0  0  0  0  0  0  0
    0.0000    0.0000    0.0000 C   0  0  0  0  0  0  0  0  0  0  0  0
    0.0000    0.0000    0.0000 C   0  0  0  0  0  0  0  0  0  0  0  0
    0.0000    0.0000    0.0000 C   0  0  0  0  0  0  0  0  0  0  0  0
    0.0000    0.0000    0.0000 O   0  0  0  0  0  0  0  0  0  0  0  0
    0.0000    0.0000    0.0000 C   0  0  0  0  0  0  0  0  0  0  0  0
    0.0000    0.0000    0.0000 C   0  0  0  0  0  0  0  0  0  0  0  0
    0.0000    0.0000    0.0000 O   0  0  0  0  0  0  0  0  0  0  0  0
    0.0000    0.0000    0.0000 N   0  0  0  0  0  0  0  0  0  0  0  0
    0.0000    0.0000    0.0000 C   0  0  0  0  0  0  0  0  0  0  0  0
    0.0000    0.0000    0.0000 C   0  0  0  0  0  0  0  0  0  0  0  0
    0.0000    0.0000    0.0000 C   0  0  0  0  0  0  0  0  0  0  0  0
    0.0000    0.0000    0.0000 C   0  0  0  0  0  0  0  0  0  0  0  0
    0.0000    0.0000    0.0000 C   0  0  0  0  0  0  0  0  0  0  0  0
    0.0000    0.0000    0.0000 C   0  0  0  0  0  0  0  0  0  0  0  0
    0.0000    0.0000    0.0000 Br  0  0  0  0  0  0  0  0  0  0  0  0
    0.0000    0.0000    0.0000 C   0  0  0  0  0  0  0  0  0  0  0  0
    0.0000    0.0000    0.0000 C   0  0  0  0  0  0  0  0  0  0  0  0
    0.0000    0.0000    0.0000 O   0  0  0  0  0  0  0  0  0  0  0  0
    0.0000    0.0000    0.0000 C   0  0  0  0  0  0  0  0  0  0  0  0
    0.0000    0.0000    0.0000 C   0  0  0  0  0  0  0  0  0  0  0  0
    0.0000    0.0000    0.0000 C   0  0  0  0  0  0  0  0  0  0  0  0
    0.0000    0.0000    0.0000 O   0  0  0  0  0  0  0  0  0  0  0  0
    0.0000    0.0000    0.0000 C   0  0  0  0  0  0  0  0  0  0  0  0
    0.0000    0.0000    0.0000 C   0  0  0  0  0  0  0  0  0  0  0  0
    0.0000    0.0000    0.0000 C   0  0  0  0  0  0  0  0  0  0  0  0
    0.0000    0.0000    0.0000 C   0  0  0  0  0  0  0  0  0  0  0  0
    0.0000    0.0000    0.0000 C   0  0  0  0  0  0  0  0  0  0  0  0
    0.0000    0.0000    0.0000 C   0  0  0  0  0  0  0  0  0  0  0  0
    0.0000    0.0000    0.0000 C   0  0  0  0  0  0  0  0  0  0  0  0
  1  2  1  0
  2  3  2  0
  3  4  1  0
  4  5  1  0
  5  6  1  0
  6  7  1  0
  7  8  2  0
  7  9  1  0
  9 10  1  0
 10 11  2  0
 11 12  1  0
 12 13  2  0
 13 14  1  0
 14 15  2  0
 15 16  1  0
  4 17  2  0
 17 18  1  0
 18 19  1  0
 19 20  1  0
 20 21  2  0
 21 22  1  0
 22 23  2  0
 22 24  1  0
 20 25  1  0
 25 26  2  0
 26 27  1  0
 27 28  2  0
 28 29  1  0
 29 30  2  0
 24  2  1  0
 15 10  1  0
 24 18  2  0
 30 25  1  0
M  END
>  <pIC50>  (600) 
4.75

>  <ChEMBL_ID>  (600) 
CHEMBL2408503

>  <document_journal>  (600) 
Bioorg. Med. Chem. Lett.

>  <bao_endpoint>  (600) 
BAO_0000190

>  <potential_duplicate>  (600) 
False

>  <uo_units>  (600) 
UO_0000065

>  <canonical_smiles>  (600) 
Oc1cc(OCC(=O)Nc2ccccc2Br)cc3OC(=CC(=O)c13)c4ccccc4

>  <parent_molecule_chembl_id>  (600) 
CHEMBL2408503

>  <assay_type>  (600) 
B

>  <src_id>  (600) 
1

>  <ligand_efficiency>  (600) 
{u'le': u'0.22', u'bei': u'10.2', u'sei': u'5.6', u'lle': u'0.49'}

>  <standard_flag>  (600) 
True

>  <molecule_chembl_id>  (600) 
CHEMBL2408503

>  <target_organism>  (600) 
Homo sapiens

>  <standard_units>  (600) 
nM

>  <record_id>  (600) 
1908961

>  <document_chembl_id>  (600) 
CHEMBL2406924

>  <bao_format>  (600) 
BAO_0000357

>  <data_validity_description>  (600) 
None

>  <activity_id>  (600) 
13396077

>  <standard_type>  (600) 
IC50

>  <target_chembl_id>  (600) 
CHEMBL1862

>  <data_validity_comment>  (600) 
None

>  <published_value>  (600) 
17.6

>  <document_year>  (600) 
2013

>  <target_pref_name>  (600) 
Tyrosine-protein kinase ABL

>  <assay_chembl_id>  (600) 
CHEMBL2411905

>  <standard_relation>  (600) 
=

>  <assay_description>  (600) 
Inhibition of wild-type ABL1 (unknown origin)

>  <published_relation>  (600) 
=

>  <standard_value>  (600) 
17600

>  <qudt_units>  (600) 
http://www.openphacts.org/units/Nanomolar

>  <target_tax_id>  (600) 
9606

>  <bao_label>  (600) 
single protein format

>  <published_units>  (600) 
uM

>  <pchembl_value>  (600) 
4.75

>  <published_type>  (600) 
IC50

>  <activity_comment>  (600) 
None

$$$$

     RDKit          

 30 33  0  0  0  0  0  0  0  0999 V2000
    0.0000    0.0000    0.0000 O   0  0  0  0  0  0  0  0  0  0  0  0
    0.0000    0.0000    0.0000 C   0  0  0  0  0  0  0  0  0  0  0  0
    0.0000    0.0000    0.0000 C   0  0  0  0  0  0  0  0  0  0  0  0
    0.0000    0.0000    0.0000 C   0  0  0  0  0  0  0  0  0  0  0  0
    0.0000    0.0000    0.0000 O   0  0  0  0  0  0  0  0  0  0  0  0
    0.0000    0.0000    0.0000 C   0  0  0  0  0  0  0  0  0  0  0  0
    0.0000    0.0000    0.0000 C   0  0  0  0  0  0  0  0  0  0  0  0
    0.0000    0.0000    0.0000 O   0  0  0  0  0  0  0  0  0  0  0  0
    0.0000    0.0000    0.0000 N   0  0  0  0  0  0  0  0  0  0  0  0
    0.0000    0.0000    0.0000 C   0  0  0  0  0  0  0  0  0  0  0  0
    0.0000    0.0000    0.0000 C   0  0  0  0  0  0  0  0  0  0  0  0
    0.0000    0.0000    0.0000 C   0  0  0  0  0  0  0  0  0  0  0  0
    0.0000    0.0000    0.0000 C   0  0  0  0  0  0  0  0  0  0  0  0
    0.0000    0.0000    0.0000 C   0  0  0  0  0  0  0  0  0  0  0  0
    0.0000    0.0000    0.0000 Br  0  0  0  0  0  0  0  0  0  0  0  0
    0.0000    0.0000    0.0000 C   0  0  0  0  0  0  0  0  0  0  0  0
    0.0000    0.0000    0.0000 C   0  0  0  0  0  0  0  0  0  0  0  0
    0.0000    0.0000    0.0000 C   0  0  0  0  0  0  0  0  0  0  0  0
    0.0000    0.0000    0.0000 O   0  0  0  0  0  0  0  0  0  0  0  0
    0.0000    0.0000    0.0000 C   0  0  0  0  0  0  0  0  0  0  0  0
    0.0000    0.0000    0.0000 C   0  0  0  0  0  0  0  0  0  0  0  0
    0.0000    0.0000    0.0000 C   0  0  0  0  0  0  0  0  0  0  0  0
    0.0000    0.0000    0.0000 O   0  0  0  0  0  0  0  0  0  0  0  0
    0.0000    0.0000    0.0000 C   0  0  0  0  0  0  0  0  0  0  0  0
    0.0000    0.0000    0.0000 C   0  0  0  0  0  0  0  0  0  0  0  0
    0.0000    0.0000    0.0000 C   0  0  0  0  0  0  0  0  0  0  0  0
    0.0000    0.0000    0.0000 C   0  0  0  0  0  0  0  0  0  0  0  0
    0.0000    0.0000    0.0000 C   0  0  0  0  0  0  0  0  0  0  0  0
    0.0000    0.0000    0.0000 C   0  0  0  0  0  0  0  0  0  0  0  0
    0.0000    0.0000    0.0000 C   0  0  0  0  0  0  0  0  0  0  0  0
  1  2  1  0
  2  3  2  0
  3  4  1  0
  4  5  1  0
  5  6  1  0
  6  7  1  0
  7  8  2  0
  7  9  1  0
  9 10  1  0
 10 11  2  0
 11 12  1  0
 12 13  2  0
 13 14  1  0
 14 15  1  0
 14 16  2  0
  4 17  2  0
 17 18  1  0
 18 19  1  0
 19 20  1  0
 20 21  2  0
 21 22  1  0
 22 23  2  0
 22 24  1  0
 20 25  1  0
 25 26  2  0
 26 27  1  0
 27 28  2  0
 28 29  1  0
 29 30  2  0
 24  2  1  0
 16 10  1  0
 24 18  2  0
 30 25  1  0
M  END
>  <pIC50>  (601) 
5.98

>  <ChEMBL_ID>  (601) 
CHEMBL2408502

>  <document_journal>  (601) 
Bioorg. Med. Chem. Lett.

>  <bao_endpoint>  (601) 
BAO_0000190

>  <potential_duplicate>  (601) 
False

>  <uo_units>  (601) 
UO_0000065

>  <canonical_smiles>  (601) 
Oc1cc(OCC(=O)Nc2cccc(Br)c2)cc3OC(=CC(=O)c13)c4ccccc4

>  <parent_molecule_chembl_id>  (601) 
CHEMBL2408502

>  <assay_type>  (601) 
B

>  <src_id>  (601) 
1

>  <ligand_efficiency>  (601) 
{u'le': u'0.27', u'bei': u'12.83', u'sei': u'7.05', u'lle': u'1.72'}

>  <standard_flag>  (601) 
True

>  <molecule_chembl_id>  (601) 
CHEMBL2408502

>  <target_organism>  (601) 
Homo sapiens

>  <standard_units>  (601) 
nM

>  <record_id>  (601) 
1908960

>  <document_chembl_id>  (601) 
CHEMBL2406924

>  <bao_format>  (601) 
BAO_0000357

>  <data_validity_description>  (601) 
None

>  <activity_id>  (601) 
13396078

>  <standard_type>  (601) 
IC50

>  <target_chembl_id>  (601) 
CHEMBL1862

>  <data_validity_comment>  (601) 
None

>  <published_value>  (601) 
1.04

>  <document_year>  (601) 
2013

>  <target_pref_name>  (601) 
Tyrosine-protein kinase ABL

>  <assay_chembl_id>  (601) 
CHEMBL2411905

>  <standard_relation>  (601) 
=

>  <assay_description>  (601) 
Inhibition of wild-type ABL1 (unknown origin)

>  <published_relation>  (601) 
=

>  <standard_value>  (601) 
1040

>  <qudt_units>  (601) 
http://www.openphacts.org/units/Nanomolar

>  <target_tax_id>  (601) 
9606

>  <bao_label>  (601) 
single protein format

>  <published_units>  (601) 
uM

>  <pchembl_value>  (601) 
5.98

>  <published_type>  (601) 
IC50

>  <activity_comment>  (601) 
None

$$$$

     RDKit          

 30 33  0  0  0  0  0  0  0  0999 V2000
    0.0000    0.0000    0.0000 O   0  0  0  0  0  0  0  0  0  0  0  0
    0.0000    0.0000    0.0000 C   0  0  0  0  0  0  0  0  0  0  0  0
    0.0000    0.0000    0.0000 C   0  0  0  0  0  0  0  0  0  0  0  0
    0.0000    0.0000    0.0000 C   0  0  0  0  0  0  0  0  0  0  0  0
    0.0000    0.0000    0.0000 O   0  0  0  0  0  0  0  0  0  0  0  0
    0.0000    0.0000    0.0000 C   0  0  0  0  0  0  0  0  0  0  0  0
    0.0000    0.0000    0.0000 C   0  0  0  0  0  0  0  0  0  0  0  0
    0.0000    0.0000    0.0000 O   0  0  0  0  0  0  0  0  0  0  0  0
    0.0000    0.0000    0.0000 N   0  0  0  0  0  0  0  0  0  0  0  0
    0.0000    0.0000    0.0000 C   0  0  0  0  0  0  0  0  0  0  0  0
    0.0000    0.0000    0.0000 C   0  0  0  0  0  0  0  0  0  0  0  0
    0.0000    0.0000    0.0000 C   0  0  0  0  0  0  0  0  0  0  0  0
    0.0000    0.0000    0.0000 C   0  0  0  0  0  0  0  0  0  0  0  0
    0.0000    0.0000    0.0000 Br  0  0  0  0  0  0  0  0  0  0  0  0
    0.0000    0.0000    0.0000 C   0  0  0  0  0  0  0  0  0  0  0  0
    0.0000    0.0000    0.0000 C   0  0  0  0  0  0  0  0  0  0  0  0
    0.0000    0.0000    0.0000 C   0  0  0  0  0  0  0  0  0  0  0  0
    0.0000    0.0000    0.0000 C   0  0  0  0  0  0  0  0  0  0  0  0
    0.0000    0.0000    0.0000 O   0  0  0  0  0  0  0  0  0  0  0  0
    0.0000    0.0000    0.0000 C   0  0  0  0  0  0  0  0  0  0  0  0
    0.0000    0.0000    0.0000 C   0  0  0  0  0  0  0  0  0  0  0  0
    0.0000    0.0000    0.0000 C   0  0  0  0  0  0  0  0  0  0  0  0
    0.0000    0.0000    0.0000 O   0  0  0  0  0  0  0  0  0  0  0  0
    0.0000    0.0000    0.0000 C   0  0  0  0  0  0  0  0  0  0  0  0
    0.0000    0.0000    0.0000 C   0  0  0  0  0  0  0  0  0  0  0  0
    0.0000    0.0000    0.0000 C   0  0  0  0  0  0  0  0  0  0  0  0
    0.0000    0.0000    0.0000 C   0  0  0  0  0  0  0  0  0  0  0  0
    0.0000    0.0000    0.0000 C   0  0  0  0  0  0  0  0  0  0  0  0
    0.0000    0.0000    0.0000 C   0  0  0  0  0  0  0  0  0  0  0  0
    0.0000    0.0000    0.0000 C   0  0  0  0  0  0  0  0  0  0  0  0
  1  2  1  0
  2  3  2  0
  3  4  1  0
  4  5  1  0
  5  6  1  0
  6  7  1  0
  7  8  2  0
  7  9  1  0
  9 10  1  0
 10 11  2  0
 11 12  1  0
 12 13  2  0
 13 14  1  0
 13 15  1  0
 15 16  2  0
  4 17  2  0
 17 18  1  0
 18 19  1  0
 19 20  1  0
 20 21  2  0
 21 22  1  0
 22 23  2  0
 22 24  1  0
 20 25  1  0
 25 26  2  0
 26 27  1  0
 27 28  2  0
 28 29  1  0
 29 30  2  0
 24  2  1  0
 16 10  1  0
 24 18  2  0
 30 25  1  0
M  END
>  <pIC50>  (602) 
6.54

>  <ChEMBL_ID>  (602) 
CHEMBL2408501

>  <document_journal>  (602) 
Bioorg. Med. Chem. Lett.

>  <bao_endpoint>  (602) 
BAO_0000190

>  <potential_duplicate>  (602) 
False

>  <uo_units>  (602) 
UO_0000065

>  <canonical_smiles>  (602) 
Oc1cc(OCC(=O)Nc2ccc(Br)cc2)cc3OC(=CC(=O)c13)c4ccccc4

>  <parent_molecule_chembl_id>  (602) 
CHEMBL2408501

>  <assay_type>  (602) 
B

>  <src_id>  (602) 
1

>  <ligand_efficiency>  (602) 
{u'le': u'0.3', u'bei': u'14.02', u'sei': u'7.7', u'lle': u'2.28'}

>  <standard_flag>  (602) 
True

>  <molecule_chembl_id>  (602) 
CHEMBL2408501

>  <target_organism>  (602) 
Homo sapiens

>  <standard_units>  (602) 
nM

>  <record_id>  (602) 
1908959

>  <document_chembl_id>  (602) 
CHEMBL2406924

>  <bao_format>  (602) 
BAO_0000357

>  <data_validity_description>  (602) 
None

>  <activity_id>  (602) 
13396079

>  <standard_type>  (602) 
IC50

>  <target_chembl_id>  (602) 
CHEMBL1862

>  <data_validity_comment>  (602) 
None

>  <published_value>  (602) 
0.29

>  <document_year>  (602) 
2013

>  <target_pref_name>  (602) 
Tyrosine-protein kinase ABL

>  <assay_chembl_id>  (602) 
CHEMBL2411905

>  <standard_relation>  (602) 
=

>  <assay_description>  (602) 
Inhibition of wild-type ABL1 (unknown origin)

>  <published_relation>  (602) 
=

>  <standard_value>  (602) 
290

>  <qudt_units>  (602) 
http://www.openphacts.org/units/Nanomolar

>  <target_tax_id>  (602) 
9606

>  <bao_label>  (602) 
single protein format

>  <published_units>  (602) 
uM

>  <pchembl_value>  (602) 
6.54

>  <published_type>  (602) 
IC50

>  <activity_comment>  (602) 
None

$$$$

     RDKit          

 30 33  0  0  0  0  0  0  0  0999 V2000
    0.0000    0.0000    0.0000 C   0  0  0  0  0  0  0  0  0  0  0  0
    0.0000    0.0000    0.0000 C   0  0  0  0  0  0  0  0  0  0  0  0
    0.0000    0.0000    0.0000 C   0  0  0  0  0  0  0  0  0  0  0  0
    0.0000    0.0000    0.0000 C   0  0  0  0  0  0  0  0  0  0  0  0
    0.0000    0.0000    0.0000 C   0  0  0  0  0  0  0  0  0  0  0  0
    0.0000    0.0000    0.0000 N   0  0  0  0  0  0  0  0  0  0  0  0
    0.0000    0.0000    0.0000 C   0  0  0  0  0  0  0  0  0  0  0  0
    0.0000    0.0000    0.0000 O   0  0  0  0  0  0  0  0  0  0  0  0
    0.0000    0.0000    0.0000 C   0  0  0  0  0  0  0  0  0  0  0  0
    0.0000    0.0000    0.0000 O   0  0  0  0  0  0  0  0  0  0  0  0
    0.0000    0.0000    0.0000 C   0  0  0  0  0  0  0  0  0  0  0  0
    0.0000    0.0000    0.0000 C   0  0  0  0  0  0  0  0  0  0  0  0
    0.0000    0.0000    0.0000 C   0  0  0  0  0  0  0  0  0  0  0  0
    0.0000    0.0000    0.0000 O   0  0  0  0  0  0  0  0  0  0  0  0
    0.0000    0.0000    0.0000 C   0  0  0  0  0  0  0  0  0  0  0  0
    0.0000    0.0000    0.0000 C   0  0  0  0  0  0  0  0  0  0  0  0
    0.0000    0.0000    0.0000 O   0  0  0  0  0  0  0  0  0  0  0  0
    0.0000    0.0000    0.0000 C   0  0  0  0  0  0  0  0  0  0  0  0
    0.0000    0.0000    0.0000 C   0  0  0  0  0  0  0  0  0  0  0  0
    0.0000    0.0000    0.0000 O   0  0  0  0  0  0  0  0  0  0  0  0
    0.0000    0.0000    0.0000 C   0  0  0  0  0  0  0  0  0  0  0  0
    0.0000    0.0000    0.0000 C   0  0  0  0  0  0  0  0  0  0  0  0
    0.0000    0.0000    0.0000 C   0  0  0  0  0  0  0  0  0  0  0  0
    0.0000    0.0000    0.0000 C   0  0  0  0  0  0  0  0  0  0  0  0
    0.0000    0.0000    0.0000 C   0  0  0  0  0  0  0  0  0  0  0  0
    0.0000    0.0000    0.0000 C   0  0  0  0  0  0  0  0  0  0  0  0
    0.0000    0.0000    0.0000 C   0  0  0  0  0  0  0  0  0  0  0  0
    0.0000    0.0000    0.0000 C   0  0  0  0  0  0  0  0  0  0  0  0
    0.0000    0.0000    0.0000 C   0  0  0  0  0  0  0  0  0  0  0  0
    0.0000    0.0000    0.0000 C   0  0  0  0  0  0  0  0  0  0  0  0
  1  2  1  0
  2  3  2  0
  3  4  1  0
  4  5  2  0
  5  6  1  0
  6  7  1  0
  7  8  2  0
  7  9  1  0
  9 10  1  0
 10 11  1  0
 11 12  2  0
 12 13  1  0
 13 14  1  0
 13 15  2  0
 15 16  1  0
 16 17  2  0
 16 18  1  0
 18 19  2  0
 19 20  1  0
 20 21  1  0
 21 22  2  0
 19 23  1  0
 23 24  2  0
 24 25  1  0
 25 26  2  0
 26 27  1  0
 27 28  2  0
  5 29  1  0
 29 30  2  0
 30  2  1  0
 22 11  1  0
 21 15  1  0
 28 23  1  0
M  END
>  <pIC50>  (603) 
6.51

>  <ChEMBL_ID>  (603) 
CHEMBL2408500

>  <document_journal>  (603) 
Bioorg. Med. Chem. Lett.

>  <bao_endpoint>  (603) 
BAO_0000190

>  <potential_duplicate>  (603) 
False

>  <uo_units>  (603) 
UO_0000065

>  <canonical_smiles>  (603) 
Cc1ccc(NC(=O)COc2cc(O)c3C(=O)C=C(Oc3c2)c4ccccc4)cc1

>  <parent_molecule_chembl_id>  (603) 
CHEMBL2408500

>  <assay_type>  (603) 
B

>  <src_id>  (603) 
1

>  <ligand_efficiency>  (603) 
{u'le': u'0.3', u'bei': u'16.21', u'sei': u'7.67', u'lle': u'2.51'}

>  <standard_flag>  (603) 
True

>  <molecule_chembl_id>  (603) 
CHEMBL2408500

>  <target_organism>  (603) 
Homo sapiens

>  <standard_units>  (603) 
nM

>  <record_id>  (603) 
1908958

>  <document_chembl_id>  (603) 
CHEMBL2406924

>  <bao_format>  (603) 
BAO_0000357

>  <data_validity_description>  (603) 
None

>  <activity_id>  (603) 
13396080

>  <standard_type>  (603) 
IC50

>  <target_chembl_id>  (603) 
CHEMBL1862

>  <data_validity_comment>  (603) 
None

>  <published_value>  (603) 
0.31

>  <document_year>  (603) 
2013

>  <target_pref_name>  (603) 
Tyrosine-protein kinase ABL

>  <assay_chembl_id>  (603) 
CHEMBL2411905

>  <standard_relation>  (603) 
=

>  <assay_description>  (603) 
Inhibition of wild-type ABL1 (unknown origin)

>  <published_relation>  (603) 
=

>  <standard_value>  (603) 
310

>  <qudt_units>  (603) 
http://www.openphacts.org/units/Nanomolar

>  <target_tax_id>  (603) 
9606

>  <bao_label>  (603) 
single protein format

>  <published_units>  (603) 
uM

>  <pchembl_value>  (603) 
6.51

>  <published_type>  (603) 
IC50

>  <activity_comment>  (603) 
None

$$$$

     RDKit          

 30 33  0  0  0  0  0  0  0  0999 V2000
    0.0000    0.0000    0.0000 C   0  0  0  0  0  0  0  0  0  0  0  0
    0.0000    0.0000    0.0000 C   0  0  0  0  0  0  0  0  0  0  0  0
    0.0000    0.0000    0.0000 C   0  0  0  0  0  0  0  0  0  0  0  0
    0.0000    0.0000    0.0000 C   0  0  0  0  0  0  0  0  0  0  0  0
    0.0000    0.0000    0.0000 C   0  0  0  0  0  0  0  0  0  0  0  0
    0.0000    0.0000    0.0000 C   0  0  0  0  0  0  0  0  0  0  0  0
    0.0000    0.0000    0.0000 N   0  0  0  0  0  0  0  0  0  0  0  0
    0.0000    0.0000    0.0000 C   0  0  0  0  0  0  0  0  0  0  0  0
    0.0000    0.0000    0.0000 O   0  0  0  0  0  0  0  0  0  0  0  0
    0.0000    0.0000    0.0000 C   0  0  0  0  0  0  0  0  0  0  0  0
    0.0000    0.0000    0.0000 O   0  0  0  0  0  0  0  0  0  0  0  0
    0.0000    0.0000    0.0000 C   0  0  0  0  0  0  0  0  0  0  0  0
    0.0000    0.0000    0.0000 C   0  0  0  0  0  0  0  0  0  0  0  0
    0.0000    0.0000    0.0000 C   0  0  0  0  0  0  0  0  0  0  0  0
    0.0000    0.0000    0.0000 O   0  0  0  0  0  0  0  0  0  0  0  0
    0.0000    0.0000    0.0000 C   0  0  0  0  0  0  0  0  0  0  0  0
    0.0000    0.0000    0.0000 C   0  0  0  0  0  0  0  0  0  0  0  0
    0.0000    0.0000    0.0000 O   0  0  0  0  0  0  0  0  0  0  0  0
    0.0000    0.0000    0.0000 C   0  0  0  0  0  0  0  0  0  0  0  0
    0.0000    0.0000    0.0000 C   0  0  0  0  0  0  0  0  0  0  0  0
    0.0000    0.0000    0.0000 O   0  0  0  0  0  0  0  0  0  0  0  0
    0.0000    0.0000    0.0000 C   0  0  0  0  0  0  0  0  0  0  0  0
    0.0000    0.0000    0.0000 C   0  0  0  0  0  0  0  0  0  0  0  0
    0.0000    0.0000    0.0000 C   0  0  0  0  0  0  0  0  0  0  0  0
    0.0000    0.0000    0.0000 C   0  0  0  0  0  0  0  0  0  0  0  0
    0.0000    0.0000    0.0000 C   0  0  0  0  0  0  0  0  0  0  0  0
    0.0000    0.0000    0.0000 C   0  0  0  0  0  0  0  0  0  0  0  0
    0.0000    0.0000    0.0000 C   0  0  0  0  0  0  0  0  0  0  0  0
    0.0000    0.0000    0.0000 C   0  0  0  0  0  0  0  0  0  0  0  0
    0.0000    0.0000    0.0000 C   0  0  0  0  0  0  0  0  0  0  0  0
  1  2  1  0
  2  3  2  0
  3  4  1  0
  4  5  2  0
  5  6  1  0
  6  7  1  0
  7  8  1  0
  8  9  2  0
  8 10  1  0
 10 11  1  0
 11 12  1  0
 12 13  2  0
 13 14  1  0
 14 15  1  0
 14 16  2  0
 16 17  1  0
 17 18  2  0
 17 19  1  0
 19 20  2  0
 20 21  1  0
 21 22  1  0
 22 23  2  0
 20 24  1  0
 24 25  2  0
 25 26  1  0
 26 27  2  0
 27 28  1  0
 28 29  2  0
  6 30  2  0
 30  2  1  0
 23 12  1  0
 22 16  1  0
 29 24  1  0
M  END
>  <pIC50>  (604) 
5.73

>  <ChEMBL_ID>  (604) 
CHEMBL2408499

>  <document_journal>  (604) 
Bioorg. Med. Chem. Lett.

>  <bao_endpoint>  (604) 
BAO_0000190

>  <potential_duplicate>  (604) 
False

>  <uo_units>  (604) 
UO_0000065

>  <canonical_smiles>  (604) 
Cc1cccc(NC(=O)COc2cc(O)c3C(=O)C=C(Oc3c2)c4ccccc4)c1

>  <parent_molecule_chembl_id>  (604) 
CHEMBL2408499

>  <assay_type>  (604) 
B

>  <src_id>  (604) 
1

>  <ligand_efficiency>  (604) 
{u'le': u'0.26', u'bei': u'14.26', u'sei': u'6.75', u'lle': u'1.73'}

>  <standard_flag>  (604) 
True

>  <molecule_chembl_id>  (604) 
CHEMBL2408499

>  <target_organism>  (604) 
Homo sapiens

>  <standard_units>  (604) 
nM

>  <record_id>  (604) 
1908957

>  <document_chembl_id>  (604) 
CHEMBL2406924

>  <bao_format>  (604) 
BAO_0000357

>  <data_validity_description>  (604) 
None

>  <activity_id>  (604) 
13396985

>  <standard_type>  (604) 
IC50

>  <target_chembl_id>  (604) 
CHEMBL1862

>  <data_validity_comment>  (604) 
None

>  <published_value>  (604) 
1.88

>  <document_year>  (604) 
2013

>  <target_pref_name>  (604) 
Tyrosine-protein kinase ABL

>  <assay_chembl_id>  (604) 
CHEMBL2411905

>  <standard_relation>  (604) 
=

>  <assay_description>  (604) 
Inhibition of wild-type ABL1 (unknown origin)

>  <published_relation>  (604) 
=

>  <standard_value>  (604) 
1880

>  <qudt_units>  (604) 
http://www.openphacts.org/units/Nanomolar

>  <target_tax_id>  (604) 
9606

>  <bao_label>  (604) 
single protein format

>  <published_units>  (604) 
uM

>  <pchembl_value>  (604) 
5.73

>  <published_type>  (604) 
IC50

>  <activity_comment>  (604) 
None

$$$$

     RDKit          

 30 33  0  0  0  0  0  0  0  0999 V2000
    0.0000    0.0000    0.0000 O   0  0  0  0  0  0  0  0  0  0  0  0
    0.0000    0.0000    0.0000 C   0  0  0  0  0  0  0  0  0  0  0  0
    0.0000    0.0000    0.0000 C   0  0  0  0  0  0  0  0  0  0  0  0
    0.0000    0.0000    0.0000 C   0  0  0  0  0  0  0  0  0  0  0  0
    0.0000    0.0000    0.0000 O   0  0  0  0  0  0  0  0  0  0  0  0
    0.0000    0.0000    0.0000 C   0  0  0  0  0  0  0  0  0  0  0  0
    0.0000    0.0000    0.0000 C   0  0  0  0  0  0  0  0  0  0  0  0
    0.0000    0.0000    0.0000 O   0  0  0  0  0  0  0  0  0  0  0  0
    0.0000    0.0000    0.0000 N   0  0  0  0  0  0  0  0  0  0  0  0
    0.0000    0.0000    0.0000 C   0  0  0  0  0  0  0  0  0  0  0  0
    0.0000    0.0000    0.0000 N   0  0  0  0  0  0  0  0  0  0  0  0
    0.0000    0.0000    0.0000 C   0  0  0  0  0  0  0  0  0  0  0  0
    0.0000    0.0000    0.0000 C   0  0  0  0  0  0  0  0  0  0  0  0
    0.0000    0.0000    0.0000 C   0  0  0  0  0  0  0  0  0  0  0  0
    0.0000    0.0000    0.0000 C   0  0  0  0  0  0  0  0  0  0  0  0
    0.0000    0.0000    0.0000 F   0  0  0  0  0  0  0  0  0  0  0  0
    0.0000    0.0000    0.0000 C   0  0  0  0  0  0  0  0  0  0  0  0
    0.0000    0.0000    0.0000 C   0  0  0  0  0  0  0  0  0  0  0  0
    0.0000    0.0000    0.0000 O   0  0  0  0  0  0  0  0  0  0  0  0
    0.0000    0.0000    0.0000 C   0  0  0  0  0  0  0  0  0  0  0  0
    0.0000    0.0000    0.0000 C   0  0  0  0  0  0  0  0  0  0  0  0
    0.0000    0.0000    0.0000 C   0  0  0  0  0  0  0  0  0  0  0  0
    0.0000    0.0000    0.0000 O   0  0  0  0  0  0  0  0  0  0  0  0
    0.0000    0.0000    0.0000 C   0  0  0  0  0  0  0  0  0  0  0  0
    0.0000    0.0000    0.0000 C   0  0  0  0  0  0  0  0  0  0  0  0
    0.0000    0.0000    0.0000 C   0  0  0  0  0  0  0  0  0  0  0  0
    0.0000    0.0000    0.0000 C   0  0  0  0  0  0  0  0  0  0  0  0
    0.0000    0.0000    0.0000 C   0  0  0  0  0  0  0  0  0  0  0  0
    0.0000    0.0000    0.0000 C   0  0  0  0  0  0  0  0  0  0  0  0
    0.0000    0.0000    0.0000 C   0  0  0  0  0  0  0  0  0  0  0  0
  1  2  1  0
  2  3  2  0
  3  4  1  0
  4  5  1  0
  5  6  1  0
  6  7  1  0
  7  8  2  0
  7  9  1  0
  9 10  1  0
 10 11  2  0
 11 12  1  0
 12 13  2  0
 13 14  1  0
 14 15  2  0
 15 16  1  0
  4 17  2  0
 17 18  1  0
 18 19  1  0
 19 20  1  0
 20 21  2  0
 21 22  1  0
 22 23  2  0
 22 24  1  0
 20 25  1  0
 25 26  2  0
 26 27  1  0
 27 28  2  0
 28 29  1  0
 29 30  2  0
 24  2  1  0
 15 10  1  0
 24 18  2  0
 30 25  1  0
M  END
>  <pIC50>  (605) 
5.66

>  <ChEMBL_ID>  (605) 
CHEMBL2408498

>  <document_journal>  (605) 
Bioorg. Med. Chem. Lett.

>  <bao_endpoint>  (605) 
BAO_0000190

>  <potential_duplicate>  (605) 
False

>  <uo_units>  (605) 
UO_0000065

>  <canonical_smiles>  (605) 
Oc1cc(OCC(=O)Nc2ncccc2F)cc3OC(=CC(=O)c13)c4ccccc4

>  <parent_molecule_chembl_id>  (605) 
CHEMBL2408498

>  <assay_type>  (605) 
B

>  <src_id>  (605) 
1

>  <ligand_efficiency>  (605) 
{u'le': u'0.26', u'bei': u'13.94', u'sei': u'5.79', u'lle': u'2.55'}

>  <standard_flag>  (605) 
True

>  <molecule_chembl_id>  (605) 
CHEMBL2408498

>  <target_organism>  (605) 
Homo sapiens

>  <standard_units>  (605) 
nM

>  <record_id>  (605) 
1908956

>  <document_chembl_id>  (605) 
CHEMBL2406924

>  <bao_format>  (605) 
BAO_0000357

>  <data_validity_description>  (605) 
None

>  <activity_id>  (605) 
13396986

>  <standard_type>  (605) 
IC50

>  <target_chembl_id>  (605) 
CHEMBL1862

>  <data_validity_comment>  (605) 
None

>  <published_value>  (605) 
2.17

>  <document_year>  (605) 
2013

>  <target_pref_name>  (605) 
Tyrosine-protein kinase ABL

>  <assay_chembl_id>  (605) 
CHEMBL2411905

>  <standard_relation>  (605) 
=

>  <assay_description>  (605) 
Inhibition of wild-type ABL1 (unknown origin)

>  <published_relation>  (605) 
=

>  <standard_value>  (605) 
2170

>  <qudt_units>  (605) 
http://www.openphacts.org/units/Nanomolar

>  <target_tax_id>  (605) 
9606

>  <bao_label>  (605) 
single protein format

>  <published_units>  (605) 
uM

>  <pchembl_value>  (605) 
5.66

>  <published_type>  (605) 
IC50

>  <activity_comment>  (605) 
None

$$$$

     RDKit          

 29 32  0  0  0  0  0  0  0  0999 V2000
    0.0000    0.0000    0.0000 O   0  0  0  0  0  0  0  0  0  0  0  0
    0.0000    0.0000    0.0000 C   0  0  0  0  0  0  0  0  0  0  0  0
    0.0000    0.0000    0.0000 C   0  0  0  0  0  0  0  0  0  0  0  0
    0.0000    0.0000    0.0000 C   0  0  0  0  0  0  0  0  0  0  0  0
    0.0000    0.0000    0.0000 O   0  0  0  0  0  0  0  0  0  0  0  0
    0.0000    0.0000    0.0000 C   0  0  0  0  0  0  0  0  0  0  0  0
    0.0000    0.0000    0.0000 C   0  0  0  0  0  0  0  0  0  0  0  0
    0.0000    0.0000    0.0000 O   0  0  0  0  0  0  0  0  0  0  0  0
    0.0000    0.0000    0.0000 N   0  0  0  0  0  0  0  0  0  0  0  0
    0.0000    0.0000    0.0000 C   0  0  0  0  0  0  0  0  0  0  0  0
    0.0000    0.0000    0.0000 C   0  0  0  0  0  0  0  0  0  0  0  0
    0.0000    0.0000    0.0000 C   0  0  0  0  0  0  0  0  0  0  0  0
    0.0000    0.0000    0.0000 C   0  0  0  0  0  0  0  0  0  0  0  0
    0.0000    0.0000    0.0000 C   0  0  0  0  0  0  0  0  0  0  0  0
    0.0000    0.0000    0.0000 N   0  0  0  0  0  0  0  0  0  0  0  0
    0.0000    0.0000    0.0000 C   0  0  0  0  0  0  0  0  0  0  0  0
    0.0000    0.0000    0.0000 C   0  0  0  0  0  0  0  0  0  0  0  0
    0.0000    0.0000    0.0000 O   0  0  0  0  0  0  0  0  0  0  0  0
    0.0000    0.0000    0.0000 C   0  0  0  0  0  0  0  0  0  0  0  0
    0.0000    0.0000    0.0000 C   0  0  0  0  0  0  0  0  0  0  0  0
    0.0000    0.0000    0.0000 C   0  0  0  0  0  0  0  0  0  0  0  0
    0.0000    0.0000    0.0000 O   0  0  0  0  0  0  0  0  0  0  0  0
    0.0000    0.0000    0.0000 C   0  0  0  0  0  0  0  0  0  0  0  0
    0.0000    0.0000    0.0000 C   0  0  0  0  0  0  0  0  0  0  0  0
    0.0000    0.0000    0.0000 C   0  0  0  0  0  0  0  0  0  0  0  0
    0.0000    0.0000    0.0000 C   0  0  0  0  0  0  0  0  0  0  0  0
    0.0000    0.0000    0.0000 C   0  0  0  0  0  0  0  0  0  0  0  0
    0.0000    0.0000    0.0000 C   0  0  0  0  0  0  0  0  0  0  0  0
    0.0000    0.0000    0.0000 C   0  0  0  0  0  0  0  0  0  0  0  0
  1  2  1  0
  2  3  2  0
  3  4  1  0
  4  5  1  0
  5  6  1  0
  6  7  1  0
  7  8  2  0
  7  9  1  0
  9 10  1  0
 10 11  2  0
 11 12  1  0
 12 13  2  0
 13 14  1  0
 14 15  2  0
  4 16  2  0
 16 17  1  0
 17 18  1  0
 18 19  1  0
 19 20  2  0
 20 21  1  0
 21 22  2  0
 21 23  1  0
 19 24  1  0
 24 25  2  0
 25 26  1  0
 26 27  2  0
 27 28  1  0
 28 29  2  0
 23  2  1  0
 15 10  1  0
 23 17  2  0
 29 24  1  0
M  END
>  <pIC50>  (606) 
4.95

>  <ChEMBL_ID>  (606) 
CHEMBL2408497

>  <document_journal>  (606) 
Bioorg. Med. Chem. Lett.

>  <bao_endpoint>  (606) 
BAO_0000190

>  <potential_duplicate>  (606) 
False

>  <uo_units>  (606) 
UO_0000065

>  <canonical_smiles>  (606) 
Oc1cc(OCC(=O)Nc2ccccn2)cc3OC(=CC(=O)c13)c4ccccc4

>  <parent_molecule_chembl_id>  (606) 
CHEMBL2408497

>  <assay_type>  (606) 
B

>  <src_id>  (606) 
1

>  <ligand_efficiency>  (606) 
{u'le': u'0.23', u'bei': u'12.75', u'sei': u'5.06', u'lle': u'2.05'}

>  <standard_flag>  (606) 
True

>  <molecule_chembl_id>  (606) 
CHEMBL2408497

>  <target_organism>  (606) 
Homo sapiens

>  <standard_units>  (606) 
nM

>  <record_id>  (606) 
1908955

>  <document_chembl_id>  (606) 
CHEMBL2406924

>  <bao_format>  (606) 
BAO_0000357

>  <data_validity_description>  (606) 
None

>  <activity_id>  (606) 
13396987

>  <standard_type>  (606) 
IC50

>  <target_chembl_id>  (606) 
CHEMBL1862

>  <data_validity_comment>  (606) 
None

>  <published_value>  (606) 
11.2

>  <document_year>  (606) 
2013

>  <target_pref_name>  (606) 
Tyrosine-protein kinase ABL

>  <assay_chembl_id>  (606) 
CHEMBL2411905

>  <standard_relation>  (606) 
=

>  <assay_description>  (606) 
Inhibition of wild-type ABL1 (unknown origin)

>  <published_relation>  (606) 
=

>  <standard_value>  (606) 
11200

>  <qudt_units>  (606) 
http://www.openphacts.org/units/Nanomolar

>  <target_tax_id>  (606) 
9606

>  <bao_label>  (606) 
single protein format

>  <published_units>  (606) 
uM

>  <pchembl_value>  (606) 
4.95

>  <published_type>  (606) 
IC50

>  <activity_comment>  (606) 
None

$$$$

     RDKit          

 31 34  0  0  0  0  0  0  0  0999 V2000
    0.0000    0.0000    0.0000 C   0  0  0  0  0  0  0  0  0  0  0  0
    0.0000    0.0000    0.0000 C   0  0  0  0  0  0  0  0  0  0  0  0
    0.0000    0.0000    0.0000 C   0  0  0  0  0  0  0  0  0  0  0  0
    0.0000    0.0000    0.0000 C   0  0  0  0  0  0  0  0  0  0  0  0
    0.0000    0.0000    0.0000 N   0  0  0  0  0  0  0  0  0  0  0  0
    0.0000    0.0000    0.0000 C   0  0  0  0  0  0  0  0  0  0  0  0
    0.0000    0.0000    0.0000 O   0  0  0  0  0  0  0  0  0  0  0  0
    0.0000    0.0000    0.0000 C   0  0  0  0  0  0  0  0  0  0  0  0
    0.0000    0.0000    0.0000 O   0  0  0  0  0  0  0  0  0  0  0  0
    0.0000    0.0000    0.0000 C   0  0  0  0  0  0  0  0  0  0  0  0
    0.0000    0.0000    0.0000 C   0  0  0  0  0  0  0  0  0  0  0  0
    0.0000    0.0000    0.0000 C   0  0  0  0  0  0  0  0  0  0  0  0
    0.0000    0.0000    0.0000 O   0  0  0  0  0  0  0  0  0  0  0  0
    0.0000    0.0000    0.0000 C   0  0  0  0  0  0  0  0  0  0  0  0
    0.0000    0.0000    0.0000 C   0  0  0  0  0  0  0  0  0  0  0  0
    0.0000    0.0000    0.0000 O   0  0  0  0  0  0  0  0  0  0  0  0
    0.0000    0.0000    0.0000 C   0  0  0  0  0  0  0  0  0  0  0  0
    0.0000    0.0000    0.0000 C   0  0  0  0  0  0  0  0  0  0  0  0
    0.0000    0.0000    0.0000 O   0  0  0  0  0  0  0  0  0  0  0  0
    0.0000    0.0000    0.0000 C   0  0  0  0  0  0  0  0  0  0  0  0
    0.0000    0.0000    0.0000 C   0  0  0  0  0  0  0  0  0  0  0  0
    0.0000    0.0000    0.0000 C   0  0  0  0  0  0  0  0  0  0  0  0
    0.0000    0.0000    0.0000 C   0  0  0  0  0  0  0  0  0  0  0  0
    0.0000    0.0000    0.0000 C   0  0  0  0  0  0  0  0  0  0  0  0
    0.0000    0.0000    0.0000 C   0  0  0  0  0  0  0  0  0  0  0  0
    0.0000    0.0000    0.0000 C   0  0  0  0  0  0  0  0  0  0  0  0
    0.0000    0.0000    0.0000 C   0  0  0  0  0  0  0  0  0  0  0  0
    0.0000    0.0000    0.0000 N   0  0  0  0  0  0  0  0  0  0  0  0
    0.0000    0.0000    0.0000 C   0  0  0  0  0  0  0  0  0  0  0  0
    0.0000    0.0000    0.0000 C   0  0  0  0  0  0  0  0  0  0  0  0
    0.0000    0.0000    0.0000 Br  0  0  0  0  0  0  0  0  0  0  0  0
  1  2  1  0
  2  3  2  0
  3  4  1  0
  4  5  1  0
  5  6  1  0
  6  7  2  0
  6  8  1  0
  8  9  1  0
  9 10  1  0
 10 11  2  0
 11 12  1  0
 12 13  1  0
 12 14  2  0
 14 15  1  0
 15 16  2  0
 15 17  1  0
 17 18  2  0
 18 19  1  0
 19 20  1  0
 20 21  2  0
 18 22  1  0
 22 23  2  0
 23 24  1  0
 24 25  2  0
 25 26  1  0
 26 27  2  0
  4 28  2  0
 28 29  1  0
 29 30  2  0
 30 31  1  0
 30  2  1  0
 21 10  1  0
 20 14  1  0
 27 22  1  0
M  END
>  <pIC50>  (607) 
5.82

>  <ChEMBL_ID>  (607) 
CHEMBL2408496

>  <document_journal>  (607) 
Bioorg. Med. Chem. Lett.

>  <bao_endpoint>  (607) 
BAO_0000190

>  <potential_duplicate>  (607) 
False

>  <uo_units>  (607) 
UO_0000065

>  <canonical_smiles>  (607) 
Cc1cc(NC(=O)COc2cc(O)c3C(=O)C=C(Oc3c2)c4ccccc4)ncc1Br

>  <parent_molecule_chembl_id>  (607) 
CHEMBL2408496

>  <assay_type>  (607) 
B

>  <src_id>  (607) 
1

>  <ligand_efficiency>  (607) 
{u'le': u'0.26', u'bei': u'12.08', u'sei': u'5.95', u'lle': u'1.68'}

>  <standard_flag>  (607) 
True

>  <molecule_chembl_id>  (607) 
CHEMBL2408496

>  <target_organism>  (607) 
Homo sapiens

>  <standard_units>  (607) 
nM

>  <record_id>  (607) 
1908954

>  <document_chembl_id>  (607) 
CHEMBL2406924

>  <bao_format>  (607) 
BAO_0000357

>  <data_validity_description>  (607) 
None

>  <activity_id>  (607) 
13396988

>  <standard_type>  (607) 
IC50

>  <target_chembl_id>  (607) 
CHEMBL1862

>  <data_validity_comment>  (607) 
None

>  <published_value>  (607) 
1.53

>  <document_year>  (607) 
2013

>  <target_pref_name>  (607) 
Tyrosine-protein kinase ABL

>  <assay_chembl_id>  (607) 
CHEMBL2411905

>  <standard_relation>  (607) 
=

>  <assay_description>  (607) 
Inhibition of wild-type ABL1 (unknown origin)

>  <published_relation>  (607) 
=

>  <standard_value>  (607) 
1530

>  <qudt_units>  (607) 
http://www.openphacts.org/units/Nanomolar

>  <target_tax_id>  (607) 
9606

>  <bao_label>  (607) 
single protein format

>  <published_units>  (607) 
uM

>  <pchembl_value>  (607) 
5.82

>  <published_type>  (607) 
IC50

>  <activity_comment>  (607) 
None

$$$$

     RDKit          

 30 33  0  0  0  0  0  0  0  0999 V2000
    0.0000    0.0000    0.0000 O   0  0  0  0  0  0  0  0  0  0  0  0
    0.0000    0.0000    0.0000 C   0  0  0  0  0  0  0  0  0  0  0  0
    0.0000    0.0000    0.0000 C   0  0  0  0  0  0  0  0  0  0  0  0
    0.0000    0.0000    0.0000 C   0  0  0  0  0  0  0  0  0  0  0  0
    0.0000    0.0000    0.0000 O   0  0  0  0  0  0  0  0  0  0  0  0
    0.0000    0.0000    0.0000 C   0  0  0  0  0  0  0  0  0  0  0  0
    0.0000    0.0000    0.0000 C   0  0  0  0  0  0  0  0  0  0  0  0
    0.0000    0.0000    0.0000 O   0  0  0  0  0  0  0  0  0  0  0  0
    0.0000    0.0000    0.0000 N   0  0  0  0  0  0  0  0  0  0  0  0
    0.0000    0.0000    0.0000 C   0  0  0  0  0  0  0  0  0  0  0  0
    0.0000    0.0000    0.0000 C   0  0  0  0  0  0  0  0  0  0  0  0
    0.0000    0.0000    0.0000 C   0  0  0  0  0  0  0  0  0  0  0  0
    0.0000    0.0000    0.0000 Br  0  0  0  0  0  0  0  0  0  0  0  0
    0.0000    0.0000    0.0000 C   0  0  0  0  0  0  0  0  0  0  0  0
    0.0000    0.0000    0.0000 C   0  0  0  0  0  0  0  0  0  0  0  0
    0.0000    0.0000    0.0000 N   0  0  0  0  0  0  0  0  0  0  0  0
    0.0000    0.0000    0.0000 C   0  0  0  0  0  0  0  0  0  0  0  0
    0.0000    0.0000    0.0000 C   0  0  0  0  0  0  0  0  0  0  0  0
    0.0000    0.0000    0.0000 O   0  0  0  0  0  0  0  0  0  0  0  0
    0.0000    0.0000    0.0000 C   0  0  0  0  0  0  0  0  0  0  0  0
    0.0000    0.0000    0.0000 C   0  0  0  0  0  0  0  0  0  0  0  0
    0.0000    0.0000    0.0000 C   0  0  0  0  0  0  0  0  0  0  0  0
    0.0000    0.0000    0.0000 O   0  0  0  0  0  0  0  0  0  0  0  0
    0.0000    0.0000    0.0000 C   0  0  0  0  0  0  0  0  0  0  0  0
    0.0000    0.0000    0.0000 C   0  0  0  0  0  0  0  0  0  0  0  0
    0.0000    0.0000    0.0000 C   0  0  0  0  0  0  0  0  0  0  0  0
    0.0000    0.0000    0.0000 C   0  0  0  0  0  0  0  0  0  0  0  0
    0.0000    0.0000    0.0000 C   0  0  0  0  0  0  0  0  0  0  0  0
    0.0000    0.0000    0.0000 C   0  0  0  0  0  0  0  0  0  0  0  0
    0.0000    0.0000    0.0000 C   0  0  0  0  0  0  0  0  0  0  0  0
  1  2  1  0
  2  3  2  0
  3  4  1  0
  4  5  1  0
  5  6  1  0
  6  7  1  0
  7  8  2  0
  7  9  1  0
  9 10  1  0
 10 11  2  0
 11 12  1  0
 12 13  1  0
 12 14  2  0
 14 15  1  0
 15 16  2  0
  4 17  2  0
 17 18  1  0
 18 19  1  0
 19 20  1  0
 20 21  2  0
 21 22  1  0
 22 23  2  0
 22 24  1  0
 20 25  1  0
 25 26  2  0
 26 27  1  0
 27 28  2  0
 28 29  1  0
 29 30  2  0
 24  2  1  0
 16 10  1  0
 24 18  2  0
 30 25  1  0
M  END
>  <pIC50>  (608) 
5.91

>  <ChEMBL_ID>  (608) 
CHEMBL2408495

>  <document_journal>  (608) 
Bioorg. Med. Chem. Lett.

>  <bao_endpoint>  (608) 
BAO_0000190

>  <potential_duplicate>  (608) 
False

>  <uo_units>  (608) 
UO_0000065

>  <canonical_smiles>  (608) 
Oc1cc(OCC(=O)Nc2cc(Br)ccn2)cc3OC(=CC(=O)c13)c4ccccc4

>  <parent_molecule_chembl_id>  (608) 
CHEMBL2408495

>  <assay_type>  (608) 
B

>  <src_id>  (608) 
1

>  <ligand_efficiency>  (608) 
{u'le': u'0.27', u'bei': u'12.65', u'sei': u'6.05', u'lle': u'2.26'}

>  <standard_flag>  (608) 
True

>  <molecule_chembl_id>  (608) 
CHEMBL2408495

>  <target_organism>  (608) 
Homo sapiens

>  <standard_units>  (608) 
nM

>  <record_id>  (608) 
1908953

>  <document_chembl_id>  (608) 
CHEMBL2406924

>  <bao_format>  (608) 
BAO_0000357

>  <data_validity_description>  (608) 
None

>  <activity_id>  (608) 
13396989

>  <standard_type>  (608) 
IC50

>  <target_chembl_id>  (608) 
CHEMBL1862

>  <data_validity_comment>  (608) 
None

>  <published_value>  (608) 
1.23

>  <document_year>  (608) 
2013

>  <target_pref_name>  (608) 
Tyrosine-protein kinase ABL

>  <assay_chembl_id>  (608) 
CHEMBL2411905

>  <standard_relation>  (608) 
=

>  <assay_description>  (608) 
Inhibition of wild-type ABL1 (unknown origin)

>  <published_relation>  (608) 
=

>  <standard_value>  (608) 
1230

>  <qudt_units>  (608) 
http://www.openphacts.org/units/Nanomolar

>  <target_tax_id>  (608) 
9606

>  <bao_label>  (608) 
single protein format

>  <published_units>  (608) 
uM

>  <pchembl_value>  (608) 
5.91

>  <published_type>  (608) 
IC50

>  <activity_comment>  (608) 
None

$$$$

     RDKit          

 30 33  0  0  0  0  0  0  0  0999 V2000
    0.0000    0.0000    0.0000 O   0  0  0  0  0  0  0  0  0  0  0  0
    0.0000    0.0000    0.0000 C   0  0  0  0  0  0  0  0  0  0  0  0
    0.0000    0.0000    0.0000 C   0  0  0  0  0  0  0  0  0  0  0  0
    0.0000    0.0000    0.0000 C   0  0  0  0  0  0  0  0  0  0  0  0
    0.0000    0.0000    0.0000 O   0  0  0  0  0  0  0  0  0  0  0  0
    0.0000    0.0000    0.0000 C   0  0  0  0  0  0  0  0  0  0  0  0
    0.0000    0.0000    0.0000 C   0  0  0  0  0  0  0  0  0  0  0  0
    0.0000    0.0000    0.0000 O   0  0  0  0  0  0  0  0  0  0  0  0
    0.0000    0.0000    0.0000 N   0  0  0  0  0  0  0  0  0  0  0  0
    0.0000    0.0000    0.0000 C   0  0  0  0  0  0  0  0  0  0  0  0
    0.0000    0.0000    0.0000 C   0  0  0  0  0  0  0  0  0  0  0  0
    0.0000    0.0000    0.0000 C   0  0  0  0  0  0  0  0  0  0  0  0
    0.0000    0.0000    0.0000 C   0  0  0  0  0  0  0  0  0  0  0  0
    0.0000    0.0000    0.0000 Br  0  0  0  0  0  0  0  0  0  0  0  0
    0.0000    0.0000    0.0000 C   0  0  0  0  0  0  0  0  0  0  0  0
    0.0000    0.0000    0.0000 N   0  0  0  0  0  0  0  0  0  0  0  0
    0.0000    0.0000    0.0000 C   0  0  0  0  0  0  0  0  0  0  0  0
    0.0000    0.0000    0.0000 C   0  0  0  0  0  0  0  0  0  0  0  0
    0.0000    0.0000    0.0000 O   0  0  0  0  0  0  0  0  0  0  0  0
    0.0000    0.0000    0.0000 C   0  0  0  0  0  0  0  0  0  0  0  0
    0.0000    0.0000    0.0000 C   0  0  0  0  0  0  0  0  0  0  0  0
    0.0000    0.0000    0.0000 C   0  0  0  0  0  0  0  0  0  0  0  0
    0.0000    0.0000    0.0000 O   0  0  0  0  0  0  0  0  0  0  0  0
    0.0000    0.0000    0.0000 C   0  0  0  0  0  0  0  0  0  0  0  0
    0.0000    0.0000    0.0000 C   0  0  0  0  0  0  0  0  0  0  0  0
    0.0000    0.0000    0.0000 C   0  0  0  0  0  0  0  0  0  0  0  0
    0.0000    0.0000    0.0000 C   0  0  0  0  0  0  0  0  0  0  0  0
    0.0000    0.0000    0.0000 C   0  0  0  0  0  0  0  0  0  0  0  0
    0.0000    0.0000    0.0000 C   0  0  0  0  0  0  0  0  0  0  0  0
    0.0000    0.0000    0.0000 C   0  0  0  0  0  0  0  0  0  0  0  0
  1  2  1  0
  2  3  2  0
  3  4  1  0
  4  5  1  0
  5  6  1  0
  6  7  1  0
  7  8  2  0
  7  9  1  0
  9 10  1  0
 10 11  2  0
 11 12  1  0
 12 13  2  0
 13 14  1  0
 13 15  1  0
 15 16  2  0
  4 17  2  0
 17 18  1  0
 18 19  1  0
 19 20  1  0
 20 21  2  0
 21 22  1  0
 22 23  2  0
 22 24  1  0
 20 25  1  0
 25 26  2  0
 26 27  1  0
 27 28  2  0
 28 29  1  0
 29 30  2  0
 24  2  1  0
 16 10  1  0
 24 18  2  0
 30 25  1  0
M  END
>  <pIC50>  (609) 
6.92

>  <ChEMBL_ID>  (609) 
CHEMBL2408511

>  <document_journal>  (609) 
Bioorg. Med. Chem. Lett.

>  <bao_endpoint>  (609) 
BAO_0000190

>  <potential_duplicate>  (609) 
False

>  <uo_units>  (609) 
UO_0000065

>  <canonical_smiles>  (609) 
Oc1cc(OCC(=O)Nc2ccc(Br)cn2)cc3OC(=CC(=O)c13)c4ccccc4

>  <parent_molecule_chembl_id>  (609) 
CHEMBL2408511

>  <assay_type>  (609) 
B

>  <src_id>  (609) 
1

>  <ligand_efficiency>  (609) 
{u'le': u'0.32', u'bei': u'14.81', u'sei': u'7.08', u'lle': u'3.27'}

>  <standard_flag>  (609) 
True

>  <molecule_chembl_id>  (609) 
CHEMBL2408511

>  <target_organism>  (609) 
Homo sapiens

>  <standard_units>  (609) 
nM

>  <record_id>  (609) 
1908969

>  <document_chembl_id>  (609) 
CHEMBL2406924

>  <bao_format>  (609) 
BAO_0000357

>  <data_validity_description>  (609) 
None

>  <activity_id>  (609) 
13396990

>  <standard_type>  (609) 
IC50

>  <target_chembl_id>  (609) 
CHEMBL1862

>  <data_validity_comment>  (609) 
None

>  <published_value>  (609) 
0.12

>  <document_year>  (609) 
2013

>  <target_pref_name>  (609) 
Tyrosine-protein kinase ABL

>  <assay_chembl_id>  (609) 
CHEMBL2411905

>  <standard_relation>  (609) 
=

>  <assay_description>  (609) 
Inhibition of wild-type ABL1 (unknown origin)

>  <published_relation>  (609) 
=

>  <standard_value>  (609) 
120

>  <qudt_units>  (609) 
http://www.openphacts.org/units/Nanomolar

>  <target_tax_id>  (609) 
9606

>  <bao_label>  (609) 
single protein format

>  <published_units>  (609) 
uM

>  <pchembl_value>  (609) 
6.92

>  <published_type>  (609) 
IC50

>  <activity_comment>  (609) 
None

$$$$

     RDKit          

 30 33  0  0  0  0  0  0  0  0999 V2000
    0.0000    0.0000    0.0000 C   0  0  0  0  0  0  0  0  0  0  0  0
    0.0000    0.0000    0.0000 C   0  0  0  0  0  0  0  0  0  0  0  0
    0.0000    0.0000    0.0000 C   0  0  0  0  0  0  0  0  0  0  0  0
    0.0000    0.0000    0.0000 C   0  0  0  0  0  0  0  0  0  0  0  0
    0.0000    0.0000    0.0000 N   0  0  0  0  0  0  0  0  0  0  0  0
    0.0000    0.0000    0.0000 C   0  0  0  0  0  0  0  0  0  0  0  0
    0.0000    0.0000    0.0000 N   0  0  0  0  0  0  0  0  0  0  0  0
    0.0000    0.0000    0.0000 C   0  0  0  0  0  0  0  0  0  0  0  0
    0.0000    0.0000    0.0000 O   0  0  0  0  0  0  0  0  0  0  0  0
    0.0000    0.0000    0.0000 C   0  0  0  0  0  0  0  0  0  0  0  0
    0.0000    0.0000    0.0000 O   0  0  0  0  0  0  0  0  0  0  0  0
    0.0000    0.0000    0.0000 C   0  0  0  0  0  0  0  0  0  0  0  0
    0.0000    0.0000    0.0000 C   0  0  0  0  0  0  0  0  0  0  0  0
    0.0000    0.0000    0.0000 C   0  0  0  0  0  0  0  0  0  0  0  0
    0.0000    0.0000    0.0000 O   0  0  0  0  0  0  0  0  0  0  0  0
    0.0000    0.0000    0.0000 C   0  0  0  0  0  0  0  0  0  0  0  0
    0.0000    0.0000    0.0000 C   0  0  0  0  0  0  0  0  0  0  0  0
    0.0000    0.0000    0.0000 O   0  0  0  0  0  0  0  0  0  0  0  0
    0.0000    0.0000    0.0000 C   0  0  0  0  0  0  0  0  0  0  0  0
    0.0000    0.0000    0.0000 C   0  0  0  0  0  0  0  0  0  0  0  0
    0.0000    0.0000    0.0000 O   0  0  0  0  0  0  0  0  0  0  0  0
    0.0000    0.0000    0.0000 C   0  0  0  0  0  0  0  0  0  0  0  0
    0.0000    0.0000    0.0000 C   0  0  0  0  0  0  0  0  0  0  0  0
    0.0000    0.0000    0.0000 C   0  0  0  0  0  0  0  0  0  0  0  0
    0.0000    0.0000    0.0000 C   0  0  0  0  0  0  0  0  0  0  0  0
    0.0000    0.0000    0.0000 C   0  0  0  0  0  0  0  0  0  0  0  0
    0.0000    0.0000    0.0000 C   0  0  0  0  0  0  0  0  0  0  0  0
    0.0000    0.0000    0.0000 C   0  0  0  0  0  0  0  0  0  0  0  0
    0.0000    0.0000    0.0000 C   0  0  0  0  0  0  0  0  0  0  0  0
    0.0000    0.0000    0.0000 C   0  0  0  0  0  0  0  0  0  0  0  0
  1  2  1  0
  2  3  2  0
  3  4  1  0
  4  5  2  0
  5  6  1  0
  6  7  1  0
  7  8  1  0
  8  9  2  0
  8 10  1  0
 10 11  1  0
 11 12  1  0
 12 13  2  0
 13 14  1  0
 14 15  1  0
 14 16  2  0
 16 17  1  0
 17 18  2  0
 17 19  1  0
 19 20  2  0
 20 21  1  0
 21 22  1  0
 22 23  2  0
 20 24  1  0
 24 25  2  0
 25 26  1  0
 26 27  2  0
 27 28  1  0
 28 29  2  0
  6 30  2  0
 30  2  1  0
 23 12  1  0
 22 16  1  0
 29 24  1  0
M  END
>  <pIC50>  (610) 
6.59

>  <ChEMBL_ID>  (610) 
CHEMBL2408510

>  <document_journal>  (610) 
Bioorg. Med. Chem. Lett.

>  <bao_endpoint>  (610) 
BAO_0000190

>  <potential_duplicate>  (610) 
False

>  <uo_units>  (610) 
UO_0000065

>  <canonical_smiles>  (610) 
Cc1ccnc(NC(=O)COc2cc(O)c3C(=O)C=C(Oc3c2)c4ccccc4)c1

>  <parent_molecule_chembl_id>  (610) 
CHEMBL2408510

>  <assay_type>  (610) 
B

>  <src_id>  (610) 
1

>  <ligand_efficiency>  (610) 
{u'le': u'0.3', u'bei': u'16.36', u'sei': u'6.74', u'lle': u'3.2'}

>  <standard_flag>  (610) 
True

>  <molecule_chembl_id>  (610) 
CHEMBL2408510

>  <target_organism>  (610) 
Homo sapiens

>  <standard_units>  (610) 
nM

>  <record_id>  (610) 
1908968

>  <document_chembl_id>  (610) 
CHEMBL2406924

>  <bao_format>  (610) 
BAO_0000357

>  <data_validity_description>  (610) 
None

>  <activity_id>  (610) 
13396991

>  <standard_type>  (610) 
IC50

>  <target_chembl_id>  (610) 
CHEMBL1862

>  <data_validity_comment>  (610) 
None

>  <published_value>  (610) 
0.26

>  <document_year>  (610) 
2013

>  <target_pref_name>  (610) 
Tyrosine-protein kinase ABL

>  <assay_chembl_id>  (610) 
CHEMBL2411905

>  <standard_relation>  (610) 
=

>  <assay_description>  (610) 
Inhibition of wild-type ABL1 (unknown origin)

>  <published_relation>  (610) 
=

>  <standard_value>  (610) 
260

>  <qudt_units>  (610) 
http://www.openphacts.org/units/Nanomolar

>  <target_tax_id>  (610) 
9606

>  <bao_label>  (610) 
single protein format

>  <published_units>  (610) 
uM

>  <pchembl_value>  (610) 
6.59

>  <published_type>  (610) 
IC50

>  <activity_comment>  (610) 
None

$$$$

     RDKit          

 30 33  0  0  0  0  0  0  0  0999 V2000
    0.0000    0.0000    0.0000 C   0  0  0  0  0  0  0  0  0  0  0  0
    0.0000    0.0000    0.0000 C   0  0  0  0  0  0  0  0  0  0  0  0
    0.0000    0.0000    0.0000 C   0  0  0  0  0  0  0  0  0  0  0  0
    0.0000    0.0000    0.0000 C   0  0  0  0  0  0  0  0  0  0  0  0
    0.0000    0.0000    0.0000 C   0  0  0  0  0  0  0  0  0  0  0  0
    0.0000    0.0000    0.0000 N   0  0  0  0  0  0  0  0  0  0  0  0
    0.0000    0.0000    0.0000 C   0  0  0  0  0  0  0  0  0  0  0  0
    0.0000    0.0000    0.0000 O   0  0  0  0  0  0  0  0  0  0  0  0
    0.0000    0.0000    0.0000 C   0  0  0  0  0  0  0  0  0  0  0  0
    0.0000    0.0000    0.0000 O   0  0  0  0  0  0  0  0  0  0  0  0
    0.0000    0.0000    0.0000 C   0  0  0  0  0  0  0  0  0  0  0  0
    0.0000    0.0000    0.0000 C   0  0  0  0  0  0  0  0  0  0  0  0
    0.0000    0.0000    0.0000 C   0  0  0  0  0  0  0  0  0  0  0  0
    0.0000    0.0000    0.0000 O   0  0  0  0  0  0  0  0  0  0  0  0
    0.0000    0.0000    0.0000 C   0  0  0  0  0  0  0  0  0  0  0  0
    0.0000    0.0000    0.0000 C   0  0  0  0  0  0  0  0  0  0  0  0
    0.0000    0.0000    0.0000 O   0  0  0  0  0  0  0  0  0  0  0  0
    0.0000    0.0000    0.0000 C   0  0  0  0  0  0  0  0  0  0  0  0
    0.0000    0.0000    0.0000 C   0  0  0  0  0  0  0  0  0  0  0  0
    0.0000    0.0000    0.0000 O   0  0  0  0  0  0  0  0  0  0  0  0
    0.0000    0.0000    0.0000 C   0  0  0  0  0  0  0  0  0  0  0  0
    0.0000    0.0000    0.0000 C   0  0  0  0  0  0  0  0  0  0  0  0
    0.0000    0.0000    0.0000 C   0  0  0  0  0  0  0  0  0  0  0  0
    0.0000    0.0000    0.0000 C   0  0  0  0  0  0  0  0  0  0  0  0
    0.0000    0.0000    0.0000 C   0  0  0  0  0  0  0  0  0  0  0  0
    0.0000    0.0000    0.0000 C   0  0  0  0  0  0  0  0  0  0  0  0
    0.0000    0.0000    0.0000 C   0  0  0  0  0  0  0  0  0  0  0  0
    0.0000    0.0000    0.0000 C   0  0  0  0  0  0  0  0  0  0  0  0
    0.0000    0.0000    0.0000 N   0  0  0  0  0  0  0  0  0  0  0  0
    0.0000    0.0000    0.0000 C   0  0  0  0  0  0  0  0  0  0  0  0
  1  2  1  0
  2  3  2  0
  3  4  1  0
  4  5  2  0
  5  6  1  0
  6  7  1  0
  7  8  2  0
  7  9  1  0
  9 10  1  0
 10 11  1  0
 11 12  2  0
 12 13  1  0
 13 14  1  0
 13 15  2  0
 15 16  1  0
 16 17  2  0
 16 18  1  0
 18 19  2  0
 19 20  1  0
 20 21  1  0
 21 22  2  0
 19 23  1  0
 23 24  2  0
 24 25  1  0
 25 26  2  0
 26 27  1  0
 27 28  2  0
  5 29  1  0
 29 30  2  0
 30  2  1  0
 22 11  1  0
 21 15  1  0
 28 23  1  0
M  END
>  <pIC50>  (611) 
6.13

>  <ChEMBL_ID>  (611) 
CHEMBL2408509

>  <document_journal>  (611) 
Bioorg. Med. Chem. Lett.

>  <bao_endpoint>  (611) 
BAO_0000190

>  <potential_duplicate>  (611) 
False

>  <uo_units>  (611) 
UO_0000065

>  <canonical_smiles>  (611) 
Cc1ccc(NC(=O)COc2cc(O)c3C(=O)C=C(Oc3c2)c4ccccc4)nc1

>  <parent_molecule_chembl_id>  (611) 
CHEMBL2408509

>  <assay_type>  (611) 
B

>  <src_id>  (611) 
1

>  <ligand_efficiency>  (611) 
{u'le': u'0.28', u'bei': u'15.24', u'sei': u'6.27', u'lle': u'2.74'}

>  <standard_flag>  (611) 
True

>  <molecule_chembl_id>  (611) 
CHEMBL2408509

>  <target_organism>  (611) 
Homo sapiens

>  <standard_units>  (611) 
nM

>  <record_id>  (611) 
1908967

>  <document_chembl_id>  (611) 
CHEMBL2406924

>  <bao_format>  (611) 
BAO_0000357

>  <data_validity_description>  (611) 
None

>  <activity_id>  (611) 
13396992

>  <standard_type>  (611) 
IC50

>  <target_chembl_id>  (611) 
CHEMBL1862

>  <data_validity_comment>  (611) 
None

>  <published_value>  (611) 
0.74

>  <document_year>  (611) 
2013

>  <target_pref_name>  (611) 
Tyrosine-protein kinase ABL

>  <assay_chembl_id>  (611) 
CHEMBL2411905

>  <standard_relation>  (611) 
=

>  <assay_description>  (611) 
Inhibition of wild-type ABL1 (unknown origin)

>  <published_relation>  (611) 
=

>  <standard_value>  (611) 
740

>  <qudt_units>  (611) 
http://www.openphacts.org/units/Nanomolar

>  <target_tax_id>  (611) 
9606

>  <bao_label>  (611) 
single protein format

>  <published_units>  (611) 
uM

>  <pchembl_value>  (611) 
6.13

>  <published_type>  (611) 
IC50

>  <activity_comment>  (611) 
None

$$$$

     RDKit          

 32 35  0  0  0  0  0  0  0  0999 V2000
    0.0000    0.0000    0.0000 C   0  0  0  0  0  0  0  0  0  0  0  0
    0.0000    0.0000    0.0000 C   0  0  0  0  0  0  0  0  0  0  0  0
    0.0000    0.0000    0.0000 C   0  0  0  0  0  0  0  0  0  0  0  0
    0.0000    0.0000    0.0000 C   0  0  0  0  0  0  0  0  0  0  0  0
    0.0000    0.0000    0.0000 C   0  0  0  0  0  0  0  0  0  0  0  0
    0.0000    0.0000    0.0000 C   0  0  0  0  0  0  0  0  0  0  0  0
    0.0000    0.0000    0.0000 N   0  0  0  0  0  0  0  0  0  0  0  0
    0.0000    0.0000    0.0000 C   0  0  0  0  0  0  0  0  0  0  0  0
    0.0000    0.0000    0.0000 O   0  0  0  0  0  0  0  0  0  0  0  0
    0.0000    0.0000    0.0000 C   0  0  0  0  0  0  0  0  0  0  0  0
    0.0000    0.0000    0.0000 O   0  0  0  0  0  0  0  0  0  0  0  0
    0.0000    0.0000    0.0000 C   0  0  0  0  0  0  0  0  0  0  0  0
    0.0000    0.0000    0.0000 C   0  0  0  0  0  0  0  0  0  0  0  0
    0.0000    0.0000    0.0000 C   0  0  0  0  0  0  0  0  0  0  0  0
    0.0000    0.0000    0.0000 O   0  0  0  0  0  0  0  0  0  0  0  0
    0.0000    0.0000    0.0000 C   0  0  0  0  0  0  0  0  0  0  0  0
    0.0000    0.0000    0.0000 C   0  0  0  0  0  0  0  0  0  0  0  0
    0.0000    0.0000    0.0000 O   0  0  0  0  0  0  0  0  0  0  0  0
    0.0000    0.0000    0.0000 C   0  0  0  0  0  0  0  0  0  0  0  0
    0.0000    0.0000    0.0000 C   0  0  0  0  0  0  0  0  0  0  0  0
    0.0000    0.0000    0.0000 O   0  0  0  0  0  0  0  0  0  0  0  0
    0.0000    0.0000    0.0000 C   0  0  0  0  0  0  0  0  0  0  0  0
    0.0000    0.0000    0.0000 C   0  0  0  0  0  0  0  0  0  0  0  0
    0.0000    0.0000    0.0000 C   0  0  0  0  0  0  0  0  0  0  0  0
    0.0000    0.0000    0.0000 C   0  0  0  0  0  0  0  0  0  0  0  0
    0.0000    0.0000    0.0000 C   0  0  0  0  0  0  0  0  0  0  0  0
    0.0000    0.0000    0.0000 F   0  0  0  0  0  0  0  0  0  0  0  0
    0.0000    0.0000    0.0000 C   0  0  0  0  0  0  0  0  0  0  0  0
    0.0000    0.0000    0.0000 C   0  0  0  0  0  0  0  0  0  0  0  0
    0.0000    0.0000    0.0000 C   0  0  0  0  0  0  0  0  0  0  0  0
    0.0000    0.0000    0.0000 F   0  0  0  0  0  0  0  0  0  0  0  0
    0.0000    0.0000    0.0000 N   0  0  0  0  0  0  0  0  0  0  0  0
  1  2  1  0
  2  3  2  0
  3  4  1  0
  4  5  2  0
  5  6  1  0
  6  7  1  0
  7  8  1  0
  8  9  2  0
  8 10  1  0
 10 11  1  0
 11 12  1  0
 12 13  2  0
 13 14  1  0
 14 15  1  0
 14 16  2  0
 16 17  1  0
 17 18  2  0
 17 19  1  0
 19 20  2  0
 20 21  1  0
 21 22  1  0
 22 23  2  0
 20 24  1  0
 24 25  2  0
 25 26  1  0
 26 27  1  0
 26 28  2  0
 28 29  1  0
 29 30  2  0
 30 31  1  0
  6 32  2  0
 32  2  1  0
 23 12  1  0
 22 16  1  0
 30 24  1  0
M  END
>  <pIC50>  (612) 
5.37

>  <ChEMBL_ID>  (612) 
CHEMBL2408508

>  <document_journal>  (612) 
Bioorg. Med. Chem. Lett.

>  <bao_endpoint>  (612) 
BAO_0000190

>  <potential_duplicate>  (612) 
False

>  <uo_units>  (612) 
UO_0000065

>  <canonical_smiles>  (612) 
Cc1cccc(NC(=O)COc2cc(O)c3C(=O)C=C(Oc3c2)c4cc(F)ccc4F)n1

>  <parent_molecule_chembl_id>  (612) 
CHEMBL2408508

>  <assay_type>  (612) 
B

>  <src_id>  (612) 
1

>  <ligand_efficiency>  (612) 
{u'le': u'0.23', u'bei': u'12.24', u'sei': u'5.49', u'lle': u'1.77'}

>  <standard_flag>  (612) 
True

>  <molecule_chembl_id>  (612) 
CHEMBL2408508

>  <target_organism>  (612) 
Homo sapiens

>  <standard_units>  (612) 
nM

>  <record_id>  (612) 
1908966

>  <document_chembl_id>  (612) 
CHEMBL2406924

>  <bao_format>  (612) 
BAO_0000357

>  <data_validity_description>  (612) 
None

>  <activity_id>  (612) 
13396993

>  <standard_type>  (612) 
IC50

>  <target_chembl_id>  (612) 
CHEMBL1862

>  <data_validity_comment>  (612) 
None

>  <published_value>  (612) 
4.31

>  <document_year>  (612) 
2013

>  <target_pref_name>  (612) 
Tyrosine-protein kinase ABL

>  <assay_chembl_id>  (612) 
CHEMBL2411905

>  <standard_relation>  (612) 
=

>  <assay_description>  (612) 
Inhibition of wild-type ABL1 (unknown origin)

>  <published_relation>  (612) 
=

>  <standard_value>  (612) 
4310

>  <qudt_units>  (612) 
http://www.openphacts.org/units/Nanomolar

>  <target_tax_id>  (612) 
9606

>  <bao_label>  (612) 
single protein format

>  <published_units>  (612) 
uM

>  <pchembl_value>  (612) 
5.37

>  <published_type>  (612) 
IC50

>  <activity_comment>  (612) 
None

$$$$

     RDKit          

 30 33  0  0  0  0  0  0  0  0999 V2000
    0.0000    0.0000    0.0000 C   0  0  0  0  0  0  0  0  0  0  0  0
    0.0000    0.0000    0.0000 C   0  0  0  0  0  0  0  0  0  0  0  0
    0.0000    0.0000    0.0000 C   0  0  0  0  0  0  0  0  0  0  0  0
    0.0000    0.0000    0.0000 C   0  0  0  0  0  0  0  0  0  0  0  0
    0.0000    0.0000    0.0000 C   0  0  0  0  0  0  0  0  0  0  0  0
    0.0000    0.0000    0.0000 C   0  0  0  0  0  0  0  0  0  0  0  0
    0.0000    0.0000    0.0000 N   0  0  0  0  0  0  0  0  0  0  0  0
    0.0000    0.0000    0.0000 C   0  0  0  0  0  0  0  0  0  0  0  0
    0.0000    0.0000    0.0000 O   0  0  0  0  0  0  0  0  0  0  0  0
    0.0000    0.0000    0.0000 C   0  0  0  0  0  0  0  0  0  0  0  0
    0.0000    0.0000    0.0000 O   0  0  0  0  0  0  0  0  0  0  0  0
    0.0000    0.0000    0.0000 C   0  0  0  0  0  0  0  0  0  0  0  0
    0.0000    0.0000    0.0000 C   0  0  0  0  0  0  0  0  0  0  0  0
    0.0000    0.0000    0.0000 C   0  0  0  0  0  0  0  0  0  0  0  0
    0.0000    0.0000    0.0000 O   0  0  0  0  0  0  0  0  0  0  0  0
    0.0000    0.0000    0.0000 C   0  0  0  0  0  0  0  0  0  0  0  0
    0.0000    0.0000    0.0000 C   0  0  0  0  0  0  0  0  0  0  0  0
    0.0000    0.0000    0.0000 O   0  0  0  0  0  0  0  0  0  0  0  0
    0.0000    0.0000    0.0000 C   0  0  0  0  0  0  0  0  0  0  0  0
    0.0000    0.0000    0.0000 C   0  0  0  0  0  0  0  0  0  0  0  0
    0.0000    0.0000    0.0000 O   0  0  0  0  0  0  0  0  0  0  0  0
    0.0000    0.0000    0.0000 C   0  0  0  0  0  0  0  0  0  0  0  0
    0.0000    0.0000    0.0000 C   0  0  0  0  0  0  0  0  0  0  0  0
    0.0000    0.0000    0.0000 C   0  0  0  0  0  0  0  0  0  0  0  0
    0.0000    0.0000    0.0000 C   0  0  0  0  0  0  0  0  0  0  0  0
    0.0000    0.0000    0.0000 C   0  0  0  0  0  0  0  0  0  0  0  0
    0.0000    0.0000    0.0000 C   0  0  0  0  0  0  0  0  0  0  0  0
    0.0000    0.0000    0.0000 C   0  0  0  0  0  0  0  0  0  0  0  0
    0.0000    0.0000    0.0000 C   0  0  0  0  0  0  0  0  0  0  0  0
    0.0000    0.0000    0.0000 N   0  0  0  0  0  0  0  0  0  0  0  0
  1  2  1  0
  2  3  2  0
  3  4  1  0
  4  5  2  0
  5  6  1  0
  6  7  1  0
  7  8  1  0
  8  9  2  0
  8 10  1  0
 10 11  1  0
 11 12  1  0
 12 13  2  0
 13 14  1  0
 14 15  1  0
 14 16  2  0
 16 17  1  0
 17 18  2  0
 17 19  1  0
 19 20  2  0
 20 21  1  0
 21 22  1  0
 22 23  2  0
 20 24  1  0
 24 25  2  0
 25 26  1  0
 26 27  2  0
 27 28  1  0
 28 29  2  0
  6 30  2  0
 30  2  1  0
 23 12  1  0
 22 16  1  0
 29 24  1  0
M  END
>  <pIC50>  (613) 
5.48

>  <ChEMBL_ID>  (613) 
CHEMBL2408507

>  <document_journal>  (613) 
Bioorg. Med. Chem. Lett.

>  <bao_endpoint>  (613) 
BAO_0000190

>  <potential_duplicate>  (613) 
False

>  <uo_units>  (613) 
UO_0000065

>  <canonical_smiles>  (613) 
Cc1cccc(NC(=O)COc2cc(O)c3C(=O)C=C(Oc3c2)c4ccccc4)n1

>  <parent_molecule_chembl_id>  (613) 
CHEMBL2408507

>  <assay_type>  (613) 
B

>  <src_id>  (613) 
1

>  <ligand_efficiency>  (613) 
{u'le': u'0.25', u'bei': u'13.62', u'sei': u'5.61', u'lle': u'2.29'}

>  <standard_flag>  (613) 
True

>  <molecule_chembl_id>  (613) 
CHEMBL2408507

>  <target_organism>  (613) 
Homo sapiens

>  <standard_units>  (613) 
nM

>  <record_id>  (613) 
1908965

>  <document_chembl_id>  (613) 
CHEMBL2406924

>  <bao_format>  (613) 
BAO_0000357

>  <data_validity_description>  (613) 
None

>  <activity_id>  (613) 
13396994

>  <standard_type>  (613) 
IC50

>  <target_chembl_id>  (613) 
CHEMBL1862

>  <data_validity_comment>  (613) 
None

>  <published_value>  (613) 
3.3

>  <document_year>  (613) 
2013

>  <target_pref_name>  (613) 
Tyrosine-protein kinase ABL

>  <assay_chembl_id>  (613) 
CHEMBL2411905

>  <standard_relation>  (613) 
=

>  <assay_description>  (613) 
Inhibition of wild-type ABL1 (unknown origin)

>  <published_relation>  (613) 
=

>  <standard_value>  (613) 
3300

>  <qudt_units>  (613) 
http://www.openphacts.org/units/Nanomolar

>  <target_tax_id>  (613) 
9606

>  <bao_label>  (613) 
single protein format

>  <published_units>  (613) 
uM

>  <pchembl_value>  (613) 
5.48

>  <published_type>  (613) 
IC50

>  <activity_comment>  (613) 
None

$$$$

     RDKit          

 28 32  0  0  0  0  0  0  0  0999 V2000
    0.0000    0.0000    0.0000 C   0  0  0  0  0  0  0  0  0  0  0  0
    0.0000    0.0000    0.0000 C   0  0  0  0  0  0  0  0  0  0  0  0
    0.0000    0.0000    0.0000 O   0  0  0  0  0  0  0  0  0  0  0  0
    0.0000    0.0000    0.0000 C   0  0  0  0  0  0  0  0  0  0  0  0
    0.0000    0.0000    0.0000 C   0  0  0  0  0  0  0  0  0  0  0  0
    0.0000    0.0000    0.0000 C   0  0  0  0  0  0  0  0  0  0  0  0
    0.0000    0.0000    0.0000 N   0  0  0  0  0  0  0  0  0  0  0  0
    0.0000    0.0000    0.0000 C   0  0  0  0  0  0  0  0  0  0  0  0
    0.0000    0.0000    0.0000 N   0  0  0  0  0  0  0  0  0  0  0  0
    0.0000    0.0000    0.0000 C   0  0  0  0  0  0  0  0  0  0  0  0
    0.0000    0.0000    0.0000 N   0  0  0  0  0  0  0  0  0  0  0  0
    0.0000    0.0000    0.0000 C   0  0  0  0  0  0  0  0  0  0  0  0
    0.0000    0.0000    0.0000 C   0  0  0  0  0  0  0  0  0  0  0  0
    0.0000    0.0000    0.0000 C   0  0  0  0  0  0  0  0  0  0  0  0
    0.0000    0.0000    0.0000 C   0  0  0  0  0  0  0  0  0  0  0  0
    0.0000    0.0000    0.0000 C   0  0  0  0  0  0  0  0  0  0  0  0
    0.0000    0.0000    0.0000 C   0  0  0  0  0  0  0  0  0  0  0  0
    0.0000    0.0000    0.0000 C   0  0  0  0  0  0  0  0  0  0  0  0
    0.0000    0.0000    0.0000 C   0  0  0  0  0  0  0  0  0  0  0  0
    0.0000    0.0000    0.0000 C   0  0  0  0  0  0  0  0  0  0  0  0
    0.0000    0.0000    0.0000 C   0  0  0  0  0  0  0  0  0  0  0  0
    0.0000    0.0000    0.0000 C   0  0  0  0  0  0  0  0  0  0  0  0
    0.0000    0.0000    0.0000 C   0  0  0  0  0  0  0  0  0  0  0  0
    0.0000    0.0000    0.0000 C   0  0  0  0  0  0  0  0  0  0  0  0
    0.0000    0.0000    0.0000 C   0  0  0  0  0  0  0  0  0  0  0  0
    0.0000    0.0000    0.0000 C   0  0  0  0  0  0  0  0  0  0  0  0
    0.0000    0.0000    0.0000 O   0  0  0  0  0  0  0  0  0  0  0  0
    0.0000    0.0000    0.0000 C   0  0  0  0  0  0  0  0  0  0  0  0
  1  2  1  0
  2  3  1  0
  3  4  1  0
  4  5  2  0
  5  6  1  0
  6  7  2  0
  7  8  1  0
  8  9  2  0
  9 10  1  0
 10 11  1  0
 11 12  1  0
 12 13  2  0
 13 14  1  0
 14 15  2  0
 15 16  1  0
 16 17  2  0
 16 18  1  0
 18 19  2  0
 19 20  1  0
 20 21  2  0
 21 22  1  0
 22 23  2  0
 10 24  2  0
 24 25  1  0
 25 26  2  0
 26 27  1  0
 27 28  1  0
 28  1  1  0
 26  4  1  0
 24  6  1  0
 17 12  1  0
 23 18  1  0
M  END
>  <pIC50>  (614) 
7.25

>  <ChEMBL_ID>  (614) 
CHEMBL2419762

>  <document_journal>  (614) 
Eur. J. Med. Chem.

>  <bao_endpoint>  (614) 
BAO_0000190

>  <potential_duplicate>  (614) 
False

>  <uo_units>  (614) 
UO_0000065

>  <canonical_smiles>  (614) 
Cl.C1COc2cc3ncnc(Nc4cccc(c4)c5ccccc5)c3cc2OC1

>  <parent_molecule_chembl_id>  (614) 
CHEMBL3040910

>  <assay_type>  (614) 
B

>  <src_id>  (614) 
1

>  <ligand_efficiency>  (614) 
{u'le': u'0.35', u'bei': u'19.63', u'sei': u'12.89', u'lle': u'2.41'}

>  <standard_flag>  (614) 
True

>  <molecule_chembl_id>  (614) 
CHEMBL2419762

>  <target_organism>  (614) 
Homo sapiens

>  <standard_units>  (614) 
nM

>  <record_id>  (614) 
1915811

>  <document_chembl_id>  (614) 
CHEMBL2417485

>  <bao_format>  (614) 
BAO_0000357

>  <data_validity_description>  (614) 
None

>  <activity_id>  (614) 
13414482

>  <standard_type>  (614) 
IC50

>  <target_chembl_id>  (614) 
CHEMBL1862

>  <data_validity_comment>  (614) 
None

>  <published_value>  (614) 
0.056

>  <document_year>  (614) 
2013

>  <target_pref_name>  (614) 
Tyrosine-protein kinase ABL

>  <assay_chembl_id>  (614) 
CHEMBL2422321

>  <standard_relation>  (614) 
=

>  <assay_description>  (614) 
Inhibition of Abl (unknown origin)

>  <published_relation>  (614) 
=

>  <standard_value>  (614) 
56

>  <qudt_units>  (614) 
http://www.openphacts.org/units/Nanomolar

>  <target_tax_id>  (614) 
9606

>  <bao_label>  (614) 
single protein format

>  <published_units>  (614) 
uM

>  <pchembl_value>  (614) 
7.25

>  <published_type>  (614) 
IC50

>  <activity_comment>  (614) 
None

$$$$

     RDKit          

 27 31  0  0  0  0  0  0  0  0999 V2000
    0.0000    0.0000    0.0000 C   0  0  0  0  0  0  0  0  0  0  0  0
    0.0000    0.0000    0.0000 C   0  0  0  0  0  0  0  0  0  0  0  0
    0.0000    0.0000    0.0000 O   0  0  0  0  0  0  0  0  0  0  0  0
    0.0000    0.0000    0.0000 C   0  0  0  0  0  0  0  0  0  0  0  0
    0.0000    0.0000    0.0000 C   0  0  0  0  0  0  0  0  0  0  0  0
    0.0000    0.0000    0.0000 C   0  0  0  0  0  0  0  0  0  0  0  0
    0.0000    0.0000    0.0000 C   0  0  0  0  0  0  0  0  0  0  0  0
    0.0000    0.0000    0.0000 N   0  0  0  0  0  0  0  0  0  0  0  0
    0.0000    0.0000    0.0000 C   0  0  0  0  0  0  0  0  0  0  0  0
    0.0000    0.0000    0.0000 C   0  0  0  0  0  0  0  0  0  0  0  0
    0.0000    0.0000    0.0000 C   0  0  0  0  0  0  0  0  0  0  0  0
    0.0000    0.0000    0.0000 C   0  0  0  0  0  0  0  0  0  0  0  0
    0.0000    0.0000    0.0000 C   0  0  0  0  0  0  0  0  0  0  0  0
    0.0000    0.0000    0.0000 C   0  0  0  0  0  0  0  0  0  0  0  0
    0.0000    0.0000    0.0000 C   0  0  0  0  0  0  0  0  0  0  0  0
    0.0000    0.0000    0.0000 C   0  0  0  0  0  0  0  0  0  0  0  0
    0.0000    0.0000    0.0000 C   0  0  0  0  0  0  0  0  0  0  0  0
    0.0000    0.0000    0.0000 C   0  0  0  0  0  0  0  0  0  0  0  0
    0.0000    0.0000    0.0000 C   0  0  0  0  0  0  0  0  0  0  0  0
    0.0000    0.0000    0.0000 C   0  0  0  0  0  0  0  0  0  0  0  0
    0.0000    0.0000    0.0000 N   0  0  0  0  0  0  0  0  0  0  0  0
    0.0000    0.0000    0.0000 C   0  0  0  0  0  0  0  0  0  0  0  0
    0.0000    0.0000    0.0000 N   0  0  0  0  0  0  0  0  0  0  0  0
    0.0000    0.0000    0.0000 C   0  0  0  0  0  0  0  0  0  0  0  0
    0.0000    0.0000    0.0000 C   0  0  0  0  0  0  0  0  0  0  0  0
    0.0000    0.0000    0.0000 C   0  0  0  0  0  0  0  0  0  0  0  0
    0.0000    0.0000    0.0000 O   0  0  0  0  0  0  0  0  0  0  0  0
  1  2  1  0
  2  3  1  0
  3  4  1  0
  4  5  2  0
  5  6  1  0
  6  7  2  0
  7  8  1  0
  8  9  1  0
  9 10  2  0
 10 11  1  0
 11 12  2  0
 12 13  1  0
 13 14  2  0
 13 15  1  0
 15 16  2  0
 16 17  1  0
 17 18  2  0
 18 19  1  0
 19 20  2  0
  7 21  1  0
 21 22  2  0
 22 23  1  0
 23 24  2  0
 24 25  1  0
 25 26  2  0
 26 27  1  0
 27  1  1  0
 26  4  1  0
 24  6  1  0
 14  9  1  0
 20 15  1  0
M  END
>  <pIC50>  (615) 
7.62

>  <ChEMBL_ID>  (615) 
CHEMBL2419761

>  <document_journal>  (615) 
Eur. J. Med. Chem.

>  <bao_endpoint>  (615) 
BAO_0000190

>  <potential_duplicate>  (615) 
False

>  <uo_units>  (615) 
UO_0000065

>  <canonical_smiles>  (615) 
Cl.C1COc2cc3c(Nc4cccc(c4)c5ccccc5)ncnc3cc2O1

>  <parent_molecule_chembl_id>  (615) 
CHEMBL3040806

>  <assay_type>  (615) 
B

>  <src_id>  (615) 
1

>  <ligand_efficiency>  (615) 
{u'le': u'0.39', u'bei': u'21.44', u'sei': u'13.54', u'lle': u'2.84'}

>  <standard_flag>  (615) 
True

>  <molecule_chembl_id>  (615) 
CHEMBL2419761

>  <target_organism>  (615) 
Homo sapiens

>  <standard_units>  (615) 
nM

>  <record_id>  (615) 
1915810

>  <document_chembl_id>  (615) 
CHEMBL2417485

>  <bao_format>  (615) 
BAO_0000357

>  <data_validity_description>  (615) 
None

>  <activity_id>  (615) 
13414483

>  <standard_type>  (615) 
IC50

>  <target_chembl_id>  (615) 
CHEMBL1862

>  <data_validity_comment>  (615) 
None

>  <published_value>  (615) 
0.024

>  <document_year>  (615) 
2013

>  <target_pref_name>  (615) 
Tyrosine-protein kinase ABL

>  <assay_chembl_id>  (615) 
CHEMBL2422321

>  <standard_relation>  (615) 
=

>  <assay_description>  (615) 
Inhibition of Abl (unknown origin)

>  <published_relation>  (615) 
=

>  <standard_value>  (615) 
24

>  <qudt_units>  (615) 
http://www.openphacts.org/units/Nanomolar

>  <target_tax_id>  (615) 
9606

>  <bao_label>  (615) 
single protein format

>  <published_units>  (615) 
uM

>  <pchembl_value>  (615) 
7.62

>  <published_type>  (615) 
IC50

>  <activity_comment>  (615) 
None

$$$$

     RDKit          

 26 30  0  0  0  0  0  0  0  0999 V2000
    0.0000    0.0000    0.0000 C   0  0  0  0  0  0  0  0  0  0  0  0
    0.0000    0.0000    0.0000 O   0  0  0  0  0  0  0  0  0  0  0  0
    0.0000    0.0000    0.0000 C   0  0  0  0  0  0  0  0  0  0  0  0
    0.0000    0.0000    0.0000 C   0  0  0  0  0  0  0  0  0  0  0  0
    0.0000    0.0000    0.0000 C   0  0  0  0  0  0  0  0  0  0  0  0
    0.0000    0.0000    0.0000 N   0  0  0  0  0  0  0  0  0  0  0  0
    0.0000    0.0000    0.0000 C   0  0  0  0  0  0  0  0  0  0  0  0
    0.0000    0.0000    0.0000 N   0  0  0  0  0  0  0  0  0  0  0  0
    0.0000    0.0000    0.0000 C   0  0  0  0  0  0  0  0  0  0  0  0
    0.0000    0.0000    0.0000 N   0  0  0  0  0  0  0  0  0  0  0  0
    0.0000    0.0000    0.0000 C   0  0  0  0  0  0  0  0  0  0  0  0
    0.0000    0.0000    0.0000 C   0  0  0  0  0  0  0  0  0  0  0  0
    0.0000    0.0000    0.0000 C   0  0  0  0  0  0  0  0  0  0  0  0
    0.0000    0.0000    0.0000 C   0  0  0  0  0  0  0  0  0  0  0  0
    0.0000    0.0000    0.0000 C   0  0  0  0  0  0  0  0  0  0  0  0
    0.0000    0.0000    0.0000 C   0  0  0  0  0  0  0  0  0  0  0  0
    0.0000    0.0000    0.0000 C   0  0  0  0  0  0  0  0  0  0  0  0
    0.0000    0.0000    0.0000 C   0  0  0  0  0  0  0  0  0  0  0  0
    0.0000    0.0000    0.0000 C   0  0  0  0  0  0  0  0  0  0  0  0
    0.0000    0.0000    0.0000 C   0  0  0  0  0  0  0  0  0  0  0  0
    0.0000    0.0000    0.0000 C   0  0  0  0  0  0  0  0  0  0  0  0
    0.0000    0.0000    0.0000 C   0  0  0  0  0  0  0  0  0  0  0  0
    0.0000    0.0000    0.0000 C   0  0  0  0  0  0  0  0  0  0  0  0
    0.0000    0.0000    0.0000 C   0  0  0  0  0  0  0  0  0  0  0  0
    0.0000    0.0000    0.0000 C   0  0  0  0  0  0  0  0  0  0  0  0
    0.0000    0.0000    0.0000 O   0  0  0  0  0  0  0  0  0  0  0  0
  1  2  1  0
  2  3  1  0
  3  4  2  0
  4  5  1  0
  5  6  2  0
  6  7  1  0
  7  8  2  0
  8  9  1  0
  9 10  1  0
 10 11  1  0
 11 12  2  0
 12 13  1  0
 13 14  2  0
 14 15  1  0
 15 16  2  0
 15 17  1  0
 17 18  2  0
 18 19  1  0
 19 20  2  0
 20 21  1  0
 21 22  2  0
  9 23  2  0
 23 24  1  0
 24 25  2  0
 25 26  1  0
 26  1  1  0
 25  3  1  0
 23  5  1  0
 16 11  1  0
 22 17  1  0
M  END
>  <pIC50>  (616) 
7.29

>  <ChEMBL_ID>  (616) 
CHEMBL2419760

>  <document_journal>  (616) 
Eur. J. Med. Chem.

>  <bao_endpoint>  (616) 
BAO_0000190

>  <potential_duplicate>  (616) 
False

>  <uo_units>  (616) 
UO_0000065

>  <canonical_smiles>  (616) 
Cl.C1Oc2cc3ncnc(Nc4cccc(c4)c5ccccc5)c3cc2O1

>  <parent_molecule_chembl_id>  (616) 
CHEMBL3040861

>  <assay_type>  (616) 
B

>  <src_id>  (616) 
1

>  <ligand_efficiency>  (616) 
{u'le': u'0.38', u'bei': u'21.36', u'sei': u'12.96', u'lle': u'2.53'}

>  <standard_flag>  (616) 
True

>  <molecule_chembl_id>  (616) 
CHEMBL2419760

>  <target_organism>  (616) 
Homo sapiens

>  <standard_units>  (616) 
nM

>  <record_id>  (616) 
1915809

>  <document_chembl_id>  (616) 
CHEMBL2417485

>  <bao_format>  (616) 
BAO_0000357

>  <data_validity_description>  (616) 
None

>  <activity_id>  (616) 
13414484

>  <standard_type>  (616) 
IC50

>  <target_chembl_id>  (616) 
CHEMBL1862

>  <data_validity_comment>  (616) 
None

>  <published_value>  (616) 
0.051

>  <document_year>  (616) 
2013

>  <target_pref_name>  (616) 
Tyrosine-protein kinase ABL

>  <assay_chembl_id>  (616) 
CHEMBL2422321

>  <standard_relation>  (616) 
=

>  <assay_description>  (616) 
Inhibition of Abl (unknown origin)

>  <published_relation>  (616) 
=

>  <standard_value>  (616) 
51

>  <qudt_units>  (616) 
http://www.openphacts.org/units/Nanomolar

>  <target_tax_id>  (616) 
9606

>  <bao_label>  (616) 
single protein format

>  <published_units>  (616) 
uM

>  <pchembl_value>  (616) 
7.29

>  <published_type>  (616) 
IC50

>  <activity_comment>  (616) 
None

$$$$

     RDKit          

 20 23  0  0  0  0  0  0  0  0999 V2000
    0.0000    0.0000    0.0000 C   0  0  0  0  0  0  0  0  0  0  0  0
    0.0000    0.0000    0.0000 C   0  0  0  0  0  0  0  0  0  0  0  0
    0.0000    0.0000    0.0000 N   0  0  0  0  0  0  0  0  0  0  0  0
    0.0000    0.0000    0.0000 C   0  0  0  0  0  0  0  0  0  0  0  0
    0.0000    0.0000    0.0000 C   0  0  0  0  0  0  0  0  0  0  0  0
    0.0000    0.0000    0.0000 C   0  0  0  0  0  0  0  0  0  0  0  0
    0.0000    0.0000    0.0000 C   0  0  0  0  0  0  0  0  0  0  0  0
    0.0000    0.0000    0.0000 C   0  0  0  0  0  0  0  0  0  0  0  0
    0.0000    0.0000    0.0000 N   0  0  0  0  0  0  0  0  0  0  0  0
    0.0000    0.0000    0.0000 C   0  0  0  0  0  0  0  0  0  0  0  0
    0.0000    0.0000    0.0000 C   0  0  0  0  0  0  0  0  0  0  0  0
    0.0000    0.0000    0.0000 C   0  0  0  0  0  0  0  0  0  0  0  0
    0.0000    0.0000    0.0000 N   0  0  0  0  0  0  0  0  0  0  0  0
    0.0000    0.0000    0.0000 C   0  0  0  0  0  0  0  0  0  0  0  0
    0.0000    0.0000    0.0000 N   0  0  0  0  0  0  0  0  0  0  0  0
    0.0000    0.0000    0.0000 C   0  0  0  0  0  0  0  0  0  0  0  0
    0.0000    0.0000    0.0000 N   0  0  0  0  0  0  0  0  0  0  0  0
    0.0000    0.0000    0.0000 C   0  0  0  0  0  0  0  0  0  0  0  0
    0.0000    0.0000    0.0000 N   0  0  0  0  0  0  0  0  0  0  0  0
    0.0000    0.0000    0.0000 C   0  0  0  0  0  0  0  0  0  0  0  0
  1  2  1  0
  2  3  1  0
  3  4  1  0
  4  5  1  0
  5  6  1  0
  5  7  1  0
  7  8  1  0
  8  9  1  0
  9 10  1  0
 10 11  1  0
  9 12  1  0
 12 13  2  0
 13 14  1  0
 14 15  2  0
 15 16  1  0
 16 17  1  0
 17 18  1  0
 18 19  2  0
 19 20  1  0
  6  1  1  0
 11  5  1  0
 20 12  1  0
 20 16  2  0
M  END
>  <pIC50>  (617) 
5.16

>  <ChEMBL_ID>  (617) 
CHEMBL2420911

>  <document_journal>  (617) 
Bioorg. Med. Chem.

>  <bao_endpoint>  (617) 
BAO_0000190

>  <potential_duplicate>  (617) 
False

>  <uo_units>  (617) 
UO_0000065

>  <canonical_smiles>  (617) 
C1CNCC2(C1)CCN(CC2)c3ncnc4[nH]cnc34

>  <parent_molecule_chembl_id>  (617) 
CHEMBL2420911

>  <assay_type>  (617) 
B

>  <src_id>  (617) 
1

>  <ligand_efficiency>  (617) 
{u'le': u'0.35', u'bei': u'18.93', u'sei': u'7.39', u'lle': u'4.21'}

>  <standard_flag>  (617) 
True

>  <molecule_chembl_id>  (617) 
CHEMBL2420911

>  <target_organism>  (617) 
Homo sapiens

>  <standard_units>  (617) 
nM

>  <record_id>  (617) 
1917195

>  <document_chembl_id>  (617) 
CHEMBL2417369

>  <bao_format>  (617) 
BAO_0000357

>  <data_validity_description>  (617) 
None

>  <activity_id>  (617) 
13419790

>  <standard_type>  (617) 
IC50

>  <target_chembl_id>  (617) 
CHEMBL1862

>  <data_validity_comment>  (617) 
None

>  <published_value>  (617) 
7

>  <document_year>  (617) 
2013

>  <target_pref_name>  (617) 
Tyrosine-protein kinase ABL

>  <assay_chembl_id>  (617) 
CHEMBL2424117

>  <standard_relation>  (617) 
=

>  <assay_description>  (617) 
Inhibition of ABL (unknown origin) by microfluidic mobility shift assay

>  <published_relation>  (617) 
=

>  <standard_value>  (617) 
7000

>  <qudt_units>  (617) 
http://www.openphacts.org/units/Nanomolar

>  <target_tax_id>  (617) 
9606

>  <bao_label>  (617) 
single protein format

>  <published_units>  (617) 
uM

>  <pchembl_value>  (617) 
5.16

>  <published_type>  (617) 
IC50

>  <activity_comment>  (617) 
None

$$$$

     RDKit          

 26 28  0  0  0  0  0  0  0  0999 V2000
    0.0000    0.0000    0.0000 O   0  0  0  0  0  0  0  0  0  0  0  0
    0.0000    0.0000    0.0000 C   0  0  0  0  0  0  0  0  0  0  0  0
    0.0000    0.0000    0.0000 C   0  0  0  0  0  0  0  0  0  0  0  0
    0.0000    0.0000    0.0000 C   0  0  0  0  0  0  0  0  0  0  0  0
    0.0000    0.0000    0.0000 C   0  0  0  0  0  0  0  0  0  0  0  0
    0.0000    0.0000    0.0000 N   0  0  0  0  0  0  0  0  0  0  0  0
    0.0000    0.0000    0.0000 S   0  0  0  0  0  0  0  0  0  0  0  0
    0.0000    0.0000    0.0000 O   0  0  0  0  0  0  0  0  0  0  0  0
    0.0000    0.0000    0.0000 O   0  0  0  0  0  0  0  0  0  0  0  0
    0.0000    0.0000    0.0000 C   0  0  0  0  0  0  0  0  0  0  0  0
    0.0000    0.0000    0.0000 C   0  0  0  0  0  0  0  0  0  0  0  0
    0.0000    0.0000    0.0000 C   0  0  0  0  0  0  0  0  0  0  0  0
    0.0000    0.0000    0.0000 C   0  0  0  0  0  0  0  0  0  0  0  0
    0.0000    0.0000    0.0000 C   0  0  0  0  0  0  0  0  0  0  0  0
    0.0000    0.0000    0.0000 C   0  0  0  0  0  0  0  0  0  0  0  0
    0.0000    0.0000    0.0000 N   0  0  0  0  0  0  0  0  0  0  0  0
    0.0000    0.0000    0.0000 O   0  0  0  0  0  0  0  0  0  0  0  0
    0.0000    0.0000    0.0000 O   0  0  0  0  0  0  0  0  0  0  0  0
    0.0000    0.0000    0.0000 C   0  0  0  0  0  0  0  0  0  0  0  0
    0.0000    0.0000    0.0000 C   0  0  0  0  0  0  0  0  0  0  0  0
    0.0000    0.0000    0.0000 S   0  0  0  0  0  0  0  0  0  0  0  0
    0.0000    0.0000    0.0000 C   0  0  0  0  0  0  0  0  0  0  0  0
    0.0000    0.0000    0.0000 N   0  0  0  0  0  0  0  0  0  0  0  0
    0.0000    0.0000    0.0000 C   0  0  0  0  0  0  0  0  0  0  0  0
    0.0000    0.0000    0.0000 N   0  0  0  0  0  0  0  0  0  0  0  0
    0.0000    0.0000    0.0000 N   0  0  0  0  0  0  0  0  0  0  0  0
  1  2  1  0
  2  3  2  0
  3  4  1  0
  4  5  2  0
  5  6  1  0
  6  7  1  0
  7  8  2  0
  7  9  2  0
  7 10  1  0
 10 11  2  0
 11 12  1  0
 12 13  2  0
 13 14  1  0
 14 15  2  0
 13 16  1  0
 16 17  2  0
 16 18  1  0
  5 19  1  0
 19 20  2  0
 20 21  1  0
 21 22  1  0
 22 23  2  0
 23 24  1  0
 24 25  2  0
 25 26  1  0
 20  2  1  0
 15 10  1  0
 26 22  1  0
M  CHG  2  16   1  18  -1
M  END
>  <pIC50>  (618) 
5.82

>  <ChEMBL_ID>  (618) 
CHEMBL2436727

>  <document_journal>  (618) 
Eur. J. Med. Chem.

>  <bao_endpoint>  (618) 
BAO_0000190

>  <potential_duplicate>  (618) 
False

>  <uo_units>  (618) 
UO_0000065

>  <canonical_smiles>  (618) 
Oc1ccc(NS(=O)(=O)c2ccc(cc2)[N+](=O)[O-])cc1Sc3ncn[nH]3

>  <parent_molecule_chembl_id>  (618) 
CHEMBL2436727

>  <assay_type>  (618) 
B

>  <src_id>  (618) 
1

>  <ligand_efficiency>  (618) 
{u'le': u'0.31', u'bei': u'14.8', u'sei': u'3.11', u'lle': u'3.43'}

>  <standard_flag>  (618) 
True

>  <molecule_chembl_id>  (618) 
CHEMBL2436727

>  <target_organism>  (618) 
Homo sapiens

>  <standard_units>  (618) 
nM

>  <record_id>  (618) 
1925290

>  <document_chembl_id>  (618) 
CHEMBL2434840

>  <bao_format>  (618) 
BAO_0000357

>  <data_validity_description>  (618) 
None

>  <activity_id>  (618) 
13472919

>  <standard_type>  (618) 
IC50

>  <target_chembl_id>  (618) 
CHEMBL1862

>  <data_validity_comment>  (618) 
None

>  <published_value>  (618) 
1.5

>  <document_year>  (618) 
2013

>  <target_pref_name>  (618) 
Tyrosine-protein kinase ABL

>  <assay_chembl_id>  (618) 
CHEMBL2438111

>  <standard_relation>  (618) 
=

>  <assay_description>  (618) 
Inhibition of ABL (unknown origin) after 30 mins by fluorescence assay

>  <published_relation>  (618) 
=

>  <standard_value>  (618) 
1500

>  <qudt_units>  (618) 
http://www.openphacts.org/units/Nanomolar

>  <target_tax_id>  (618) 
9606

>  <bao_label>  (618) 
single protein format

>  <published_units>  (618) 
uM

>  <pchembl_value>  (618) 
5.82

>  <published_type>  (618) 
IC50

>  <activity_comment>  (618) 
None

$$$$

     RDKit          

 32 37  0  0  0  0  0  0  0  0999 V2000
    0.0000    0.0000    0.0000 C   0  0  0  0  0  0  0  0  0  0  0  0
    0.0000    0.0000    0.0000 N   0  0  0  0  0  0  0  0  0  0  0  0
    0.0000    0.0000    0.0000 C   0  0  0  0  0  0  0  0  0  0  0  0
    0.0000    0.0000    0.0000 C   0  0  0  0  0  0  0  0  0  0  0  0
    0.0000    0.0000    0.0000 N   0  0  0  0  0  0  0  0  0  0  0  0
    0.0000    0.0000    0.0000 C   0  0  0  0  0  0  0  0  0  0  0  0
    0.0000    0.0000    0.0000 C   0  0  0  0  0  0  0  0  0  0  0  0
    0.0000    0.0000    0.0000 C   0  0  0  0  0  0  0  0  0  0  0  0
    0.0000    0.0000    0.0000 C   0  0  0  0  0  0  0  0  0  0  0  0
    0.0000    0.0000    0.0000 C   0  0  0  0  0  0  0  0  0  0  0  0
    0.0000    0.0000    0.0000 C   0  0  0  0  0  0  0  0  0  0  0  0
    0.0000    0.0000    0.0000 C   0  0  0  0  0  0  0  0  0  0  0  0
    0.0000    0.0000    0.0000 C   0  0  0  0  0  0  0  0  0  0  0  0
    0.0000    0.0000    0.0000 C   0  0  0  0  0  0  0  0  0  0  0  0
    0.0000    0.0000    0.0000 N   0  0  0  0  0  0  0  0  0  0  0  0
    0.0000    0.0000    0.0000 C   0  0  0  0  0  0  0  0  0  0  0  0
    0.0000    0.0000    0.0000 N   0  0  0  0  0  0  0  0  0  0  0  0
    0.0000    0.0000    0.0000 C   0  0  0  0  0  0  0  0  0  0  0  0
    0.0000    0.0000    0.0000 C   0  0  0  0  0  0  0  0  0  0  0  0
    0.0000    0.0000    0.0000 C   0  0  0  0  0  0  0  0  0  0  0  0
    0.0000    0.0000    0.0000 C   0  0  0  0  0  0  0  0  0  0  0  0
    0.0000    0.0000    0.0000 N   0  0  0  0  0  0  0  0  0  0  0  0
    0.0000    0.0000    0.0000 C   0  0  0  0  0  0  0  0  0  0  0  0
    0.0000    0.0000    0.0000 N   0  0  0  0  0  0  0  0  0  0  0  0
    0.0000    0.0000    0.0000 C   0  0  0  0  0  0  0  0  0  0  0  0
    0.0000    0.0000    0.0000 C   0  0  0  0  0  0  0  0  0  0  0  0
    0.0000    0.0000    0.0000 C   0  0  0  0  0  0  0  0  0  0  0  0
    0.0000    0.0000    0.0000 C   0  0  0  0  0  0  0  0  0  0  0  0
    0.0000    0.0000    0.0000 C   0  0  0  0  0  0  0  0  0  0  0  0
    0.0000    0.0000    0.0000 C   0  0  0  0  0  0  0  0  0  0  0  0
    0.0000    0.0000    0.0000 C   0  0  0  0  0  0  0  0  0  0  0  0
    0.0000    0.0000    0.0000 C   0  0  0  0  0  0  0  0  0  0  0  0
  1  2  1  0
  2  3  1  0
  3  4  1  0
  4  5  1  0
  5  6  1  0
  6  7  1  0
  7  8  2  0
  8  9  1  0
  9 10  2  0
 10 11  1  0
 11 12  2  0
 10 13  1  0
 13 14  2  0
 14 15  1  0
 15 16  2  0
 16 17  1  0
 17 18  1  0
 18 19  2  0
 19 20  1  0
 20 21  2  0
 21 22  1  0
 22 23  2  0
 23 24  1  0
 24 25  1  0
 25 26  2  0
 26 27  1  0
 27 28  2  0
 19 29  1  0
 29 30  2  0
  5 31  1  0
 31 32  1  0
 32  2  1  0
 12  7  1  0
 30 13  1  0
 29 16  1  0
 28 20  1  0
 27 23  1  0
M  END
>  <pIC50>  (619) 
6.55

>  <ChEMBL_ID>  (619) 
CHEMBL2436977

>  <document_journal>  (619) 
J. Med. Chem.

>  <bao_endpoint>  (619) 
BAO_0000190

>  <potential_duplicate>  (619) 
False

>  <uo_units>  (619) 
UO_0000065

>  <canonical_smiles>  (619) 
CN1CCN(Cc2ccc(cc2)c3cnc4[nH]cc(c5cnc6[nH]ccc6c5)c4c3)CC1

>  <parent_molecule_chembl_id>  (619) 
CHEMBL2436977

>  <assay_type>  (619) 
B

>  <src_id>  (619) 
1

>  <ligand_efficiency>  (619) 
{u'le': u'0.28', u'bei': u'15.49', u'sei': u'10.25', u'lle': u'2.97'}

>  <standard_flag>  (619) 
True

>  <molecule_chembl_id>  (619) 
CHEMBL2436977

>  <target_organism>  (619) 
Homo sapiens

>  <standard_units>  (619) 
nM

>  <record_id>  (619) 
1925576

>  <document_chembl_id>  (619) 
CHEMBL2434948

>  <bao_format>  (619) 
BAO_0000357

>  <data_validity_description>  (619) 
None

>  <activity_id>  (619) 
13476353

>  <standard_type>  (619) 
IC50

>  <target_chembl_id>  (619) 
CHEMBL1862

>  <data_validity_comment>  (619) 
None

>  <published_value>  (619) 
285

>  <document_year>  (619) 
2013

>  <target_pref_name>  (619) 
Tyrosine-protein kinase ABL

>  <assay_chembl_id>  (619) 
CHEMBL2439146

>  <standard_relation>  (619) 
=

>  <assay_description>  (619) 
Inhibition of wild type human ABL1 T315I mutant by high throughput ATP-[33P] radiolabeled assay

>  <published_relation>  (619) 
=

>  <standard_value>  (619) 
285

>  <qudt_units>  (619) 
http://www.openphacts.org/units/Nanomolar

>  <target_tax_id>  (619) 
9606

>  <bao_label>  (619) 
single protein format

>  <published_units>  (619) 
nM

>  <pchembl_value>  (619) 
6.55

>  <published_type>  (619) 
IC50

>  <activity_comment>  (619) 
None

$$$$

     RDKit          

 32 37  0  0  0  0  0  0  0  0999 V2000
    0.0000    0.0000    0.0000 C   0  0  0  0  0  0  0  0  0  0  0  0
    0.0000    0.0000    0.0000 N   0  0  0  0  0  0  0  0  0  0  0  0
    0.0000    0.0000    0.0000 C   0  0  0  0  0  0  0  0  0  0  0  0
    0.0000    0.0000    0.0000 C   0  0  0  0  0  0  0  0  0  0  0  0
    0.0000    0.0000    0.0000 N   0  0  0  0  0  0  0  0  0  0  0  0
    0.0000    0.0000    0.0000 C   0  0  0  0  0  0  0  0  0  0  0  0
    0.0000    0.0000    0.0000 C   0  0  0  0  0  0  0  0  0  0  0  0
    0.0000    0.0000    0.0000 C   0  0  0  0  0  0  0  0  0  0  0  0
    0.0000    0.0000    0.0000 C   0  0  0  0  0  0  0  0  0  0  0  0
    0.0000    0.0000    0.0000 C   0  0  0  0  0  0  0  0  0  0  0  0
    0.0000    0.0000    0.0000 C   0  0  0  0  0  0  0  0  0  0  0  0
    0.0000    0.0000    0.0000 C   0  0  0  0  0  0  0  0  0  0  0  0
    0.0000    0.0000    0.0000 C   0  0  0  0  0  0  0  0  0  0  0  0
    0.0000    0.0000    0.0000 C   0  0  0  0  0  0  0  0  0  0  0  0
    0.0000    0.0000    0.0000 N   0  0  0  0  0  0  0  0  0  0  0  0
    0.0000    0.0000    0.0000 C   0  0  0  0  0  0  0  0  0  0  0  0
    0.0000    0.0000    0.0000 N   0  0  0  0  0  0  0  0  0  0  0  0
    0.0000    0.0000    0.0000 C   0  0  0  0  0  0  0  0  0  0  0  0
    0.0000    0.0000    0.0000 C   0  0  0  0  0  0  0  0  0  0  0  0
    0.0000    0.0000    0.0000 C   0  0  0  0  0  0  0  0  0  0  0  0
    0.0000    0.0000    0.0000 C   0  0  0  0  0  0  0  0  0  0  0  0
    0.0000    0.0000    0.0000 C   0  0  0  0  0  0  0  0  0  0  0  0
    0.0000    0.0000    0.0000 C   0  0  0  0  0  0  0  0  0  0  0  0
    0.0000    0.0000    0.0000 N   0  0  0  0  0  0  0  0  0  0  0  0
    0.0000    0.0000    0.0000 C   0  0  0  0  0  0  0  0  0  0  0  0
    0.0000    0.0000    0.0000 C   0  0  0  0  0  0  0  0  0  0  0  0
    0.0000    0.0000    0.0000 C   0  0  0  0  0  0  0  0  0  0  0  0
    0.0000    0.0000    0.0000 C   0  0  0  0  0  0  0  0  0  0  0  0
    0.0000    0.0000    0.0000 C   0  0  0  0  0  0  0  0  0  0  0  0
    0.0000    0.0000    0.0000 C   0  0  0  0  0  0  0  0  0  0  0  0
    0.0000    0.0000    0.0000 C   0  0  0  0  0  0  0  0  0  0  0  0
    0.0000    0.0000    0.0000 C   0  0  0  0  0  0  0  0  0  0  0  0
  1  2  1  0
  2  3  1  0
  3  4  1  0
  4  5  1  0
  5  6  1  0
  6  7  1  0
  7  8  2  0
  8  9  1  0
  9 10  2  0
 10 11  1  0
 11 12  2  0
 10 13  1  0
 13 14  2  0
 14 15  1  0
 15 16  2  0
 16 17  1  0
 17 18  1  0
 18 19  2  0
 19 20  1  0
 20 21  2  0
 21 22  1  0
 22 23  2  0
 23 24  1  0
 24 25  1  0
 25 26  2  0
 26 27  1  0
 27 28  2  0
 19 29  1  0
 29 30  2  0
  5 31  1  0
 31 32  1  0
 32  2  1  0
 12  7  1  0
 30 13  1  0
 29 16  1  0
 28 20  1  0
 27 23  1  0
M  END
>  <pIC50>  (620) 
8.345

>  <ChEMBL_ID>  (620) 
CHEMBL2436978

>  <document_journal>  (620) 
J. Med. Chem.

>  <bao_endpoint>  (620) 
BAO_0000190

>  <potential_duplicate>  (620) 
False

>  <uo_units>  (620) 
UO_0000065

>  <canonical_smiles>  (620) 
CN1CCN(Cc2ccc(cc2)c3cnc4[nH]cc(c5ccc6[nH]ccc6c5)c4c3)CC1

>  <parent_molecule_chembl_id>  (620) 
CHEMBL2436978

>  <assay_type>  (620) 
B

>  <src_id>  (620) 
1

>  <ligand_efficiency>  (620) 
{u'le': u'0.35', u'bei': u'19.38', u'sei': u'16.03', u'lle': u'3.64'}

>  <standard_flag>  (620) 
True

>  <molecule_chembl_id>  (620) 
CHEMBL2436978

>  <target_organism>  (620) 
Homo sapiens

>  <standard_units>  (620) 
nM

>  <record_id>  (620) 
1925588

>  <document_chembl_id>  (620) 
CHEMBL2434948

>  <bao_format>  (620) 
BAO_0000357

>  <data_validity_description>  (620) 
None

>  <activity_id>  (620) 
13476469

>  <standard_type>  (620) 
IC50

>  <target_chembl_id>  (620) 
CHEMBL1862

>  <data_validity_comment>  (620) 
None

>  <published_value>  (620) 
6.8

>  <document_year>  (620) 
2013

>  <target_pref_name>  (620) 
Tyrosine-protein kinase ABL

>  <assay_chembl_id>  (620) 
CHEMBL2439148

>  <standard_relation>  (620) 
=

>  <assay_description>  (620) 
Inhibition of wild type human ABL1 by high throughput ATP-[33P] radiolabeled assay

>  <published_relation>  (620) 
=

>  <standard_value>  (620) 
6.8

>  <qudt_units>  (620) 
http://www.openphacts.org/units/Nanomolar

>  <target_tax_id>  (620) 
9606

>  <bao_label>  (620) 
single protein format

>  <published_units>  (620) 
nM

>  <pchembl_value>  (620) 
8.17

>  <published_type>  (620) 
IC50

>  <activity_comment>  (620) 
None

$$$$

     RDKit          

 37 40  0  0  0  0  0  0  0  0999 V2000
    0.0000    0.0000    0.0000 C   0  0  0  0  0  0  0  0  0  0  0  0
    0.0000    0.0000    0.0000 C   0  0  0  0  0  0  0  0  0  0  0  0
    0.0000    0.0000    0.0000 N   0  0  0  0  0  0  0  0  0  0  0  0
    0.0000    0.0000    0.0000 C   0  0  0  0  0  0  0  0  0  0  0  0
    0.0000    0.0000    0.0000 C   0  0  0  0  0  0  0  0  0  0  0  0
    0.0000    0.0000    0.0000 C   0  0  0  0  0  0  0  0  0  0  0  0
    0.0000    0.0000    0.0000 C   0  0  0  0  0  0  0  0  0  0  0  0
    0.0000    0.0000    0.0000 C   0  0  0  0  0  0  0  0  0  0  0  0
    0.0000    0.0000    0.0000 N   0  0  0  0  0  0  0  0  0  0  0  0
    0.0000    0.0000    0.0000 C   0  0  0  0  0  0  0  0  0  0  0  0
    0.0000    0.0000    0.0000 O   0  0  0  0  0  0  0  0  0  0  0  0
    0.0000    0.0000    0.0000 N   0  0  0  0  0  0  0  0  0  0  0  0
    0.0000    0.0000    0.0000 C   0  0  0  0  0  0  0  0  0  0  0  0
    0.0000    0.0000    0.0000 C   0  0  0  0  0  0  0  0  0  0  0  0
    0.0000    0.0000    0.0000 C   0  0  0  0  0  0  0  0  0  0  0  0
    0.0000    0.0000    0.0000 C   0  0  0  0  0  0  0  0  0  0  0  0
    0.0000    0.0000    0.0000 N   0  0  0  0  0  0  0  0  0  0  0  0
    0.0000    0.0000    0.0000 C   0  0  0  0  0  0  0  0  0  0  0  0
    0.0000    0.0000    0.0000 C   0  0  0  0  0  0  0  0  0  0  0  0
    0.0000    0.0000    0.0000 C   0  0  0  0  0  0  0  0  0  0  0  0
    0.0000    0.0000    0.0000 C   0  0  0  0  0  0  0  0  0  0  0  0
    0.0000    0.0000    0.0000 F   0  0  0  0  0  0  0  0  0  0  0  0
    0.0000    0.0000    0.0000 C   0  0  0  0  0  0  0  0  0  0  0  0
    0.0000    0.0000    0.0000 Cl  0  0  0  0  0  0  0  0  0  0  0  0
    0.0000    0.0000    0.0000 C   0  0  0  0  0  0  0  0  0  0  0  0
    0.0000    0.0000    0.0000 N   0  0  0  0  0  0  0  0  0  0  0  0
    0.0000    0.0000    0.0000 C   0  0  0  0  0  0  0  0  0  0  0  0
    0.0000    0.0000    0.0000 N   0  0  0  0  0  0  0  0  0  0  0  0
    0.0000    0.0000    0.0000 C   0  0  0  0  0  0  0  0  0  0  0  0
    0.0000    0.0000    0.0000 C   0  0  0  0  0  0  0  0  0  0  0  0
    0.0000    0.0000    0.0000 C   0  0  0  0  0  0  0  0  0  0  0  0
    0.0000    0.0000    0.0000 O   0  0  0  0  0  0  0  0  0  0  0  0
    0.0000    0.0000    0.0000 C   0  0  0  0  0  0  0  0  0  0  0  0
    0.0000    0.0000    0.0000 C   0  0  0  0  0  0  0  0  0  0  0  0
    0.0000    0.0000    0.0000 C   0  0  0  0  0  0  0  0  0  0  0  0
    0.0000    0.0000    0.0000 O   0  0  0  0  0  0  0  0  0  0  0  0
    0.0000    0.0000    0.0000 C   0  0  0  0  0  0  0  0  0  0  0  0
  1  2  1  0
  2  3  1  0
  3  4  1  0
  4  5  1  0
  3  6  1  0
  6  7  1  0
  7  8  1  0
  8  9  1  0
  9 10  1  0
 10 11  2  0
 10 12  1  0
 12 13  1  0
 13 14  2  0
 14 15  1  0
 15 16  2  0
 16 17  1  0
 17 18  1  0
 18 19  2  0
 19 20  1  0
 20 21  2  0
 21 22  1  0
 21 23  1  0
 23 24  1  0
 23 25  2  0
 16 26  1  0
 26 27  2  0
 27 28  1  0
 28 29  2  0
 29 30  1  0
 30 31  2  0
 31 32  1  0
 32 33  1  0
 33 34  1  0
 34 35  1  0
 35 36  1  0
 36 37  1  0
 31 13  1  0
 29 15  1  0
 25 18  1  0
 37 33  1  0
M  END
>  <pIC50>  (621) 
6.25

>  <ChEMBL_ID>  (621) 
CHEMBL3092314

>  <document_journal>  (621) 
Bioorg. Med. Chem.

>  <bao_endpoint>  (621) 
BAO_0000190

>  <potential_duplicate>  (621) 
False

>  <uo_units>  (621) 
UO_0000065

>  <canonical_smiles>  (621) 
CCN(CC)CCCNC(=O)Nc1cc2c(Nc3ccc(F)c(Cl)c3)ncnc2cc1O[C@H]4CCOC4

>  <parent_molecule_chembl_id>  (621) 
CHEMBL3092314

>  <assay_type>  (621) 
B

>  <src_id>  (621) 
1

>  <ligand_efficiency>  (621) 
{u'le': u'0.23', u'bei': u'11.76', u'sei': u'6.21', u'lle': u'2.13'}

>  <standard_flag>  (621) 
True

>  <molecule_chembl_id>  (621) 
CHEMBL3092314

>  <target_organism>  (621) 
Homo sapiens

>  <standard_units>  (621) 
nM

>  <record_id>  (621) 
1951985

>  <document_chembl_id>  (621) 
CHEMBL3091333

>  <bao_format>  (621) 
BAO_0000357

>  <data_validity_description>  (621) 
None

>  <activity_id>  (621) 
13851899

>  <standard_type>  (621) 
IC50

>  <target_chembl_id>  (621) 
CHEMBL1862

>  <data_validity_comment>  (621) 
None

>  <published_value>  (621) 
0.566

>  <document_year>  (621) 
2013

>  <target_pref_name>  (621) 
Tyrosine-protein kinase ABL

>  <assay_chembl_id>  (621) 
CHEMBL3095046

>  <standard_relation>  (621) 
=

>  <assay_description>  (621) 
Inhibition of recombinant ABL (unknown origin) using poly (Glu, Tyr) 4:1 as substrate after 60 mins by ELISA

>  <published_relation>  (621) 
=

>  <standard_value>  (621) 
566

>  <qudt_units>  (621) 
http://www.openphacts.org/units/Nanomolar

>  <target_tax_id>  (621) 
9606

>  <bao_label>  (621) 
single protein format

>  <published_units>  (621) 
uM

>  <pchembl_value>  (621) 
6.25

>  <published_type>  (621) 
IC50

>  <activity_comment>  (621) 
None

$$$$

     RDKit          

 35 39  0  0  0  0  0  0  0  0999 V2000
    0.0000    0.0000    0.0000 C   0  0  0  0  0  0  0  0  0  0  0  0
    0.0000    0.0000    0.0000 O   0  0  0  0  0  0  0  0  0  0  0  0
    0.0000    0.0000    0.0000 C   0  0  0  0  0  0  0  0  0  0  0  0
    0.0000    0.0000    0.0000 C   0  0  0  0  0  0  0  0  0  0  0  0
    0.0000    0.0000    0.0000 C   0  0  0  0  0  0  0  0  0  0  0  0
    0.0000    0.0000    0.0000 C   0  0  0  0  0  0  0  0  0  0  0  0
    0.0000    0.0000    0.0000 C   0  0  0  0  0  0  0  0  0  0  0  0
    0.0000    0.0000    0.0000 C   0  0  0  0  0  0  0  0  0  0  0  0
    0.0000    0.0000    0.0000 O   0  0  0  0  0  0  0  0  0  0  0  0
    0.0000    0.0000    0.0000 C   0  0  0  0  0  0  0  0  0  0  0  0
    0.0000    0.0000    0.0000 S   0  0  0  0  0  0  0  0  0  0  0  0
    0.0000    0.0000    0.0000 O   0  0  0  0  0  0  0  0  0  0  0  0
    0.0000    0.0000    0.0000 O   0  0  0  0  0  0  0  0  0  0  0  0
    0.0000    0.0000    0.0000 N   0  0  0  0  0  0  0  0  0  0  0  0
    0.0000    0.0000    0.0000 C   0  0  0  0  0  0  0  0  0  0  0  0
    0.0000    0.0000    0.0000 C   0  0  0  0  0  0  0  0  0  0  0  0
    0.0000    0.0000    0.0000 C   0  0  0  0  0  0  0  0  0  0  0  0
    0.0000    0.0000    0.0000 S   0  0  0  0  0  0  0  0  0  0  0  0
    0.0000    0.0000    0.0000 C   0  0  0  0  0  0  0  0  0  0  0  0
    0.0000    0.0000    0.0000 N   0  0  0  0  0  0  0  0  0  0  0  0
    0.0000    0.0000    0.0000 C   0  0  0  0  0  0  0  0  0  0  0  0
    0.0000    0.0000    0.0000 N   0  0  0  0  0  0  0  0  0  0  0  0
    0.0000    0.0000    0.0000 C   0  0  0  0  0  0  0  0  0  0  0  0
    0.0000    0.0000    0.0000 N   0  0  0  0  0  0  0  0  0  0  0  0
    0.0000    0.0000    0.0000 C   0  0  0  0  0  0  0  0  0  0  0  0
    0.0000    0.0000    0.0000 N   0  0  0  0  0  0  0  0  0  0  0  0
    0.0000    0.0000    0.0000 C   0  0  0  0  0  0  0  0  0  0  0  0
    0.0000    0.0000    0.0000 C   0  0  0  0  0  0  0  0  0  0  0  0
    0.0000    0.0000    0.0000 O   0  0  0  0  0  0  0  0  0  0  0  0
    0.0000    0.0000    0.0000 C   0  0  0  0  0  0  0  0  0  0  0  0
    0.0000    0.0000    0.0000 C   0  0  0  0  0  0  0  0  0  0  0  0
    0.0000    0.0000    0.0000 C   0  0  0  0  0  0  0  0  0  0  0  0
    0.0000    0.0000    0.0000 C   0  0  0  0  0  0  0  0  0  0  0  0
    0.0000    0.0000    0.0000 C   0  0  0  0  0  0  0  0  0  0  0  0
    0.0000    0.0000    0.0000 C   0  0  0  0  0  0  0  0  0  0  0  0
  1  2  1  0
  2  3  1  0
  3  4  2  0
  4  5  1  0
  5  6  2  0
  6  7  1  0
  7  8  2  0
  8  9  1  0
  9 10  1  0
  6 11  1  0
 11 12  2  0
 11 13  2  0
 11 14  1  0
 14 15  1  0
 15 16  2  0
 16 17  1  0
 17 18  1  0
 18 19  1  0
 19 20  2  0
 20 21  1  0
 21 22  2  0
 22 23  1  0
 23 24  1  0
 24 25  2  0
 25 26  1  0
 26 27  1  0
 17 28  2  0
 28 29  1  0
 28 30  1  0
 30 31  2  0
 31 32  1  0
 32 33  2  0
 33 34  1  0
 34 35  2  0
  8  3  1  0
 35 15  1  0
 27 19  1  0
 27 23  2  0
 35 30  1  0
M  END
>  <pIC50>  (622) 
5.82

>  <ChEMBL_ID>  (622) 
CHEMBL3113284

>  <document_journal>  (622) 
Bioorg. Med. Chem.

>  <bao_endpoint>  (622) 
BAO_0000190

>  <potential_duplicate>  (622) 
False

>  <uo_units>  (622) 
UO_0000065

>  <canonical_smiles>  (622) 
COc1ccc(cc1OC)S(=O)(=O)Nc2cc(Sc3ncnc4nc[nH]c34)c(O)c5ccccc25

>  <parent_molecule_chembl_id>  (622) 
CHEMBL3113284

>  <assay_type>  (622) 
B

>  <src_id>  (622) 
1

>  <ligand_efficiency>  (622) 
{u'le': u'0.23', u'bei': u'11.41', u'sei': u'3.36', u'lle': u'2.28'}

>  <standard_flag>  (622) 
True

>  <molecule_chembl_id>  (622) 
CHEMBL3113284

>  <target_organism>  (622) 
Homo sapiens

>  <standard_units>  (622) 
nM

>  <record_id>  (622) 
1963934

>  <document_chembl_id>  (622) 
CHEMBL3112530

>  <bao_format>  (622) 
BAO_0000357

>  <data_validity_description>  (622) 
None

>  <activity_id>  (622) 
13906550

>  <standard_type>  (622) 
IC50

>  <target_chembl_id>  (622) 
CHEMBL1862

>  <data_validity_comment>  (622) 
None

>  <published_value>  (622) 
1.53

>  <document_year>  (622) 
2014

>  <target_pref_name>  (622) 
Tyrosine-protein kinase ABL

>  <assay_chembl_id>  (622) 
CHEMBL3117478

>  <standard_relation>  (622) 
=

>  <assay_description>  (622) 
Inhibition of ABL (unknown origin) after 30 mins

>  <published_relation>  (622) 
=

>  <standard_value>  (622) 
1530

>  <qudt_units>  (622) 
http://www.openphacts.org/units/Nanomolar

>  <target_tax_id>  (622) 
9606

>  <bao_label>  (622) 
single protein format

>  <published_units>  (622) 
uM

>  <pchembl_value>  (622) 
5.82

>  <published_type>  (622) 
IC50

>  <activity_comment>  (622) 
None

$$$$

     RDKit          

 32 36  0  0  0  0  0  0  0  0999 V2000
    0.0000    0.0000    0.0000 C   0  0  0  0  0  0  0  0  0  0  0  0
    0.0000    0.0000    0.0000 N   0  0  0  0  0  0  0  0  0  0  0  0
    0.0000    0.0000    0.0000 C   0  0  0  0  0  0  0  0  0  0  0  0
    0.0000    0.0000    0.0000 C   0  0  0  0  0  0  0  0  0  0  0  0
    0.0000    0.0000    0.0000 N   0  0  0  0  0  0  0  0  0  0  0  0
    0.0000    0.0000    0.0000 C   0  0  0  0  0  0  0  0  0  0  0  0
    0.0000    0.0000    0.0000 C   0  0  0  0  0  0  0  0  0  0  0  0
    0.0000    0.0000    0.0000 C   0  0  0  0  0  0  0  0  0  0  0  0
    0.0000    0.0000    0.0000 C   0  0  0  0  0  0  0  0  0  0  0  0
    0.0000    0.0000    0.0000 C   0  0  0  0  0  0  0  0  0  0  0  0
    0.0000    0.0000    0.0000 C   0  0  0  0  0  0  0  0  0  0  0  0
    0.0000    0.0000    0.0000 N   0  0  0  0  0  0  0  0  0  0  0  0
    0.0000    0.0000    0.0000 C   0  0  0  0  0  0  0  0  0  0  0  0
    0.0000    0.0000    0.0000 N   0  0  0  0  0  0  0  0  0  0  0  0
    0.0000    0.0000    0.0000 C   0  0  0  0  0  0  0  0  0  0  0  0
    0.0000    0.0000    0.0000 C   0  0  0  0  0  0  0  0  0  0  0  0
    0.0000    0.0000    0.0000 C   0  0  0  0  0  0  0  0  0  0  0  0
    0.0000    0.0000    0.0000 C   0  0  0  0  0  0  0  0  0  0  0  0
    0.0000    0.0000    0.0000 C   0  0  0  0  0  0  0  0  0  0  0  0
    0.0000    0.0000    0.0000 N   0  0  0  0  0  0  0  0  0  0  0  0
    0.0000    0.0000    0.0000 C   0  0  0  0  0  0  0  0  0  0  0  0
    0.0000    0.0000    0.0000 O   0  0  0  0  0  0  0  0  0  0  0  0
    0.0000    0.0000    0.0000 N   0  0  0  0  0  0  0  0  0  0  0  0
    0.0000    0.0000    0.0000 C   0  0  0  0  0  0  0  0  0  0  0  0
    0.0000    0.0000    0.0000 C   0  0  0  0  0  0  0  0  0  0  0  0
    0.0000    0.0000    0.0000 C   0  0  0  0  0  0  0  0  0  0  0  0
    0.0000    0.0000    0.0000 C   0  0  0  0  0  0  0  0  0  0  0  0
    0.0000    0.0000    0.0000 C   0  0  0  0  0  0  0  0  0  0  0  0
    0.0000    0.0000    0.0000 C   0  0  0  0  0  0  0  0  0  0  0  0
    0.0000    0.0000    0.0000 N   0  0  0  0  0  0  0  0  0  0  0  0
    0.0000    0.0000    0.0000 C   0  0  0  0  0  0  0  0  0  0  0  0
    0.0000    0.0000    0.0000 C   0  0  0  0  0  0  0  0  0  0  0  0
  1  2  1  0
  2  3  1  0
  3  4  1  0
  4  5  1  0
  5  6  1  0
  6  7  1  0
  5  8  1  0
  8  9  2  0
  9 10  1  0
 10 11  2  0
 11 12  1  0
 12 13  1  0
 13 14  2  0
 14 15  1  0
 15 16  2  0
 16 17  1  0
 17 18  2  0
 18 19  1  0
 19 20  3  0
 18 21  1  0
 21 22  2  0
 21 23  1  0
 23 24  1  0
 24 25  1  0
 25 26  1  0
 26 27  1  0
 27 28  1  0
 23 29  1  0
 29 30  2  0
 11 31  1  0
 31 32  2  0
  7  2  1  0
 32  8  1  0
 30 13  1  0
 29 16  1  0
 28 24  1  0
M  END
>  <pIC50>  (623) 
7.27

>  <ChEMBL_ID>  (623) 
CHEMBL3115681

>  <document_journal>  (623) 
J. Med. Chem.

>  <bao_endpoint>  (623) 
BAO_0000190

>  <potential_duplicate>  (623) 
False

>  <uo_units>  (623) 
UO_0000065

>  <canonical_smiles>  (623) 
CN1CCN(CC1)c2ccc(Nc3ncc4C=C(C#N)C(=O)N(C5CCCC5)c4n3)cc2

>  <parent_molecule_chembl_id>  (623) 
CHEMBL3115681

>  <assay_type>  (623) 
B

>  <src_id>  (623) 
1

>  <ligand_efficiency>  (623) 
{u'le': u'0.31', u'bei': u'16.93', u'sei': u'8.23', u'lle': u'3.62'}

>  <standard_flag>  (623) 
True

>  <molecule_chembl_id>  (623) 
CHEMBL3115681

>  <target_organism>  (623) 
Homo sapiens

>  <standard_units>  (623) 
nM

>  <record_id>  (623) 
1966830

>  <document_chembl_id>  (623) 
CHEMBL3112420

>  <bao_format>  (623) 
BAO_0000357

>  <data_validity_description>  (623) 
None

>  <activity_id>  (623) 
13917448

>  <standard_type>  (623) 
IC50

>  <target_chembl_id>  (623) 
CHEMBL1862

>  <data_validity_comment>  (623) 
None

>  <published_value>  (623) 
53.32

>  <document_year>  (623) 
2014

>  <target_pref_name>  (623) 
Tyrosine-protein kinase ABL

>  <assay_chembl_id>  (623) 
CHEMBL3117353

>  <standard_relation>  (623) 
=

>  <assay_description>  (623) 
Inhibition of ABL (unknown origin)

>  <published_relation>  (623) 
=

>  <standard_value>  (623) 
53.32

>  <qudt_units>  (623) 
http://www.openphacts.org/units/Nanomolar

>  <target_tax_id>  (623) 
9606

>  <bao_label>  (623) 
single protein format

>  <published_units>  (623) 
nM

>  <pchembl_value>  (623) 
7.27

>  <published_type>  (623) 
IC50

>  <activity_comment>  (623) 
None

$$$$

     RDKit          

 26 29  0  0  0  0  0  0  0  0999 V2000
    0.0000    0.0000    0.0000 C   0  0  0  0  0  0  0  0  0  0  0  0
    0.0000    0.0000    0.0000 C   0  0  0  0  0  0  0  0  0  0  0  0
    0.0000    0.0000    0.0000 N   0  0  0  0  0  0  0  0  0  0  0  0
    0.0000    0.0000    0.0000 C   0  0  0  0  0  0  0  0  0  0  0  0
    0.0000    0.0000    0.0000 N   0  0  0  0  0  0  0  0  0  0  0  0
    0.0000    0.0000    0.0000 C   0  0  0  0  0  0  0  0  0  0  0  0
    0.0000    0.0000    0.0000 N   0  0  0  0  0  0  0  0  0  0  0  0
    0.0000    0.0000    0.0000 C   0  0  0  0  0  0  0  0  0  0  0  0
    0.0000    0.0000    0.0000 C   0  0  0  0  0  0  0  0  0  0  0  0
    0.0000    0.0000    0.0000 N   0  0  0  0  0  0  0  0  0  0  0  0
    0.0000    0.0000    0.0000 C   0  0  0  0  0  0  0  0  0  0  0  0
    0.0000    0.0000    0.0000 C   0  0  0  0  0  0  0  0  0  0  0  0
    0.0000    0.0000    0.0000 N   0  0  0  0  0  0  0  0  0  0  0  0
    0.0000    0.0000    0.0000 C   0  0  0  0  0  0  0  0  0  0  0  0
    0.0000    0.0000    0.0000 C   0  0  0  0  0  0  0  0  0  0  0  0
    0.0000    0.0000    0.0000 C   0  0  0  0  0  0  0  0  0  0  0  0
    0.0000    0.0000    0.0000 N   0  0  0  0  0  0  0  0  0  0  0  0
    0.0000    0.0000    0.0000 C   0  0  0  0  0  0  0  0  0  0  0  0
    0.0000    0.0000    0.0000 N   0  0  0  0  0  0  0  0  0  0  0  0
    0.0000    0.0000    0.0000 C   0  0  0  0  0  0  0  0  0  0  0  0
    0.0000    0.0000    0.0000 N   0  0  0  0  0  0  0  0  0  0  0  0
    0.0000    0.0000    0.0000 C   0  0  0  0  0  0  0  0  0  0  0  0
    0.0000    0.0000    0.0000 C   0  0  0  0  0  0  0  0  0  0  0  0
    0.0000    0.0000    0.0000 F   0  0  0  0  0  0  0  0  0  0  0  0
    0.0000    0.0000    0.0000 C   0  0  0  0  0  0  0  0  0  0  0  0
    0.0000    0.0000    0.0000 N   0  0  0  0  0  0  0  0  0  0  0  0
  1  2  1  0
  2  3  1  0
  3  4  1  0
  4  5  2  0
  5  6  1  0
  6  7  1  0
  7  8  1  0
  8  9  2  0
  9 10  1  0
 10 11  1  0
 10 12  1  0
 12 13  2  0
  6 14  2  0
 14 15  1  0
 15 16  2  0
 16 17  1  0
 17 18  1  0
 18 19  2  0
  2 20  1  0
 20 21  2  0
 21 22  1  0
 22 23  2  0
 23 24  1  0
 23 25  1  0
 25 26  2  0
 19  4  1  0
 13  8  1  0
 18 14  1  0
 26 20  1  0
M  END
>  <pIC50>  (624) 
7.6

>  <ChEMBL_ID>  (624) 
CHEMBL3116050

>  <document_journal>  (624) 
J. Med. Chem.

>  <bao_endpoint>  (624) 
BAO_0000190

>  <potential_duplicate>  (624) 
False

>  <uo_units>  (624) 
UO_0000065

>  <canonical_smiles>  (624) 
C[C@H](Nc1nc(Nc2cn(C)cn2)c3cc[nH]c3n1)c4ncc(F)cn4

>  <parent_molecule_chembl_id>  (624) 
CHEMBL3116050

>  <assay_type>  (624) 
B

>  <src_id>  (624) 
1

>  <ligand_efficiency>  (624) 
{u'le': u'0.4', u'bei': u'21.51', u'sei': u'6.96', u'lle': u'5.62'}

>  <standard_flag>  (624) 
True

>  <molecule_chembl_id>  (624) 
CHEMBL3116050

>  <target_organism>  (624) 
Homo sapiens

>  <standard_units>  (624) 
nM

>  <record_id>  (624) 
1967272

>  <document_chembl_id>  (624) 
CHEMBL3112447

>  <bao_format>  (624) 
BAO_0000357

>  <data_validity_description>  (624) 
None

>  <activity_id>  (624) 
13918704

>  <standard_type>  (624) 
IC50

>  <target_chembl_id>  (624) 
CHEMBL1862

>  <data_validity_comment>  (624) 
None

>  <published_value>  (624) 
0.025

>  <document_year>  (624) 
2014

>  <target_pref_name>  (624) 
Tyrosine-protein kinase ABL

>  <assay_chembl_id>  (624) 
CHEMBL3118223

>  <standard_relation>  (624) 
=

>  <assay_description>  (624) 
Inhibition of human Abl

>  <published_relation>  (624) 
=

>  <standard_value>  (624) 
25

>  <qudt_units>  (624) 
http://www.openphacts.org/units/Nanomolar

>  <target_tax_id>  (624) 
9606

>  <bao_label>  (624) 
single protein format

>  <published_units>  (624) 
uM

>  <pchembl_value>  (624) 
7.6

>  <published_type>  (624) 
IC50

>  <activity_comment>  (624) 
None

$$$$

     RDKit          

 36 40  0  0  0  0  0  0  0  0999 V2000
    0.0000    0.0000    0.0000 N   0  0  0  0  0  0  0  0  0  0  0  0
    0.0000    0.0000    0.0000 C   0  0  0  0  0  0  0  0  0  0  0  0
    0.0000    0.0000    0.0000 C   0  0  0  0  0  0  0  0  0  0  0  0
    0.0000    0.0000    0.0000 C   0  0  0  0  0  0  0  0  0  0  0  0
    0.0000    0.0000    0.0000 C   0  0  0  0  0  0  0  0  0  0  0  0
    0.0000    0.0000    0.0000 C   0  0  0  0  0  0  0  0  0  0  0  0
    0.0000    0.0000    0.0000 C   0  0  0  0  0  0  0  0  0  0  0  0
    0.0000    0.0000    0.0000 N   0  0  0  0  0  0  0  0  0  0  0  0
    0.0000    0.0000    0.0000 C   0  0  0  0  0  0  0  0  0  0  0  0
    0.0000    0.0000    0.0000 O   0  0  0  0  0  0  0  0  0  0  0  0
    0.0000    0.0000    0.0000 C   0  0  0  0  0  0  0  0  0  0  0  0
    0.0000    0.0000    0.0000 C   0  0  0  0  0  0  0  0  0  0  0  0
    0.0000    0.0000    0.0000 C   0  0  0  0  0  0  0  0  0  0  0  0
    0.0000    0.0000    0.0000 C   0  0  0  0  0  0  0  0  0  0  0  0
    0.0000    0.0000    0.0000 C   0  0  0  0  0  0  0  0  0  0  0  0
    0.0000    0.0000    0.0000 O   0  0  0  0  0  0  0  0  0  0  0  0
    0.0000    0.0000    0.0000 C   0  0  0  0  0  0  0  0  0  0  0  0
    0.0000    0.0000    0.0000 C   0  0  0  0  0  0  0  0  0  0  0  0
    0.0000    0.0000    0.0000 C   0  0  0  0  0  0  0  0  0  0  0  0
    0.0000    0.0000    0.0000 C   0  0  0  0  0  0  0  0  0  0  0  0
    0.0000    0.0000    0.0000 N   0  0  0  0  0  0  0  0  0  0  0  0
    0.0000    0.0000    0.0000 C   0  0  0  0  0  0  0  0  0  0  0  0
    0.0000    0.0000    0.0000 N   0  0  0  0  0  0  0  0  0  0  0  0
    0.0000    0.0000    0.0000 C   0  0  0  0  0  0  0  0  0  0  0  0
    0.0000    0.0000    0.0000 N   0  0  0  0  0  0  0  0  0  0  0  0
    0.0000    0.0000    0.0000 C   0  0  0  0  0  0  0  0  0  0  0  0
    0.0000    0.0000    0.0000 C   0  0  0  0  0  0  0  0  0  0  0  0
    0.0000    0.0000    0.0000 C   0  0  0  0  0  0  0  0  0  0  0  0
    0.0000    0.0000    0.0000 C   0  0  0  0  0  0  0  0  0  0  0  0
    0.0000    0.0000    0.0000 C   0  0  0  0  0  0  0  0  0  0  0  0
    0.0000    0.0000    0.0000 Br  0  0  0  0  0  0  0  0  0  0  0  0
    0.0000    0.0000    0.0000 C   0  0  0  0  0  0  0  0  0  0  0  0
    0.0000    0.0000    0.0000 C   0  0  0  0  0  0  0  0  0  0  0  0
    0.0000    0.0000    0.0000 C   0  0  0  0  0  0  0  0  0  0  0  0
    0.0000    0.0000    0.0000 C   0  0  0  0  0  0  0  0  0  0  0  0
    0.0000    0.0000    0.0000 C   0  0  0  0  0  0  0  0  0  0  0  0
  1  2  1  0
  2  3  2  0
  3  4  1  0
  4  5  2  0
  5  6  1  0
  6  7  2  0
  7  8  1  0
  8  9  1  0
  9 10  2  0
  9 11  1  0
 11 12  2  0
 12 13  1  0
 13 14  2  0
 14 15  1  0
 15 16  1  0
 16 17  1  0
 17 18  2  0
 18 19  1  0
 19 20  2  0
 20 21  1  0
 21 22  2  0
 22 23  1  0
 23 24  2  0
 24 25  1  0
 25 26  1  0
 26 27  2  0
 27 28  1  0
 28 29  2  0
 29 30  1  0
 30 31  1  0
 30 32  2  0
 24 33  1  0
 33 34  2  0
 14 35  1  0
 35 36  2  0
  7  2  1  0
 36 11  1  0
 34 17  1  0
 33 20  1  0
 32 26  1  0
M  END
>  <pIC50>  (625) 
4.96

>  <ChEMBL_ID>  (625) 
CHEMBL3217993

>  <document_journal>  (625) 
MedChemComm

>  <bao_endpoint>  (625) 
BAO_0000190

>  <potential_duplicate>  (625) 
False

>  <uo_units>  (625) 
UO_0000065

>  <canonical_smiles>  (625) 
Nc1ccccc1NC(=O)c2ccc(COc3ccc4ncnc(Nc5cccc(Br)c5)c4c3)cc2

>  <parent_molecule_chembl_id>  (625) 
CHEMBL3217993

>  <assay_type>  (625) 
B

>  <src_id>  (625) 
1

>  <ligand_efficiency>  (625) 
{u'le': u'0.19', u'bei': u'9.18', u'sei': u'4.85', u'lle': u'-0.87'}

>  <standard_flag>  (625) 
True

>  <molecule_chembl_id>  (625) 
CHEMBL3217993

>  <target_organism>  (625) 
Homo sapiens

>  <standard_units>  (625) 
nM

>  <record_id>  (625) 
2072329

>  <document_chembl_id>  (625) 
CHEMBL3217617

>  <bao_format>  (625) 
BAO_0000357

>  <data_validity_description>  (625) 
None

>  <activity_id>  (625) 
14543413

>  <standard_type>  (625) 
IC50

>  <target_chembl_id>  (625) 
CHEMBL1862

>  <data_validity_comment>  (625) 
None

>  <published_value>  (625) 
11

>  <document_year>  (625) 
2012

>  <target_pref_name>  (625) 
Tyrosine-protein kinase ABL

>  <assay_chembl_id>  (625) 
CHEMBL3226017

>  <standard_relation>  (625) 
=

>  <assay_description>  (625) 
Inhibition of recombinant Abl1 (unknown origin) using poly-Glu-Tyr peptide as substrate

>  <published_relation>  (625) 
=

>  <standard_value>  (625) 
11000

>  <qudt_units>  (625) 
http://www.openphacts.org/units/Nanomolar

>  <target_tax_id>  (625) 
9606

>  <bao_label>  (625) 
single protein format

>  <published_units>  (625) 
uM

>  <pchembl_value>  (625) 
4.96

>  <published_type>  (625) 
IC50

>  <activity_comment>  (625) 
None

$$$$

     RDKit          

 37 41  0  0  0  0  0  0  0  0999 V2000
    0.0000    0.0000    0.0000 N   0  0  0  0  0  0  0  0  0  0  0  0
    0.0000    0.0000    0.0000 C   0  0  0  0  0  0  0  0  0  0  0  0
    0.0000    0.0000    0.0000 C   0  0  0  0  0  0  0  0  0  0  0  0
    0.0000    0.0000    0.0000 C   0  0  0  0  0  0  0  0  0  0  0  0
    0.0000    0.0000    0.0000 C   0  0  0  0  0  0  0  0  0  0  0  0
    0.0000    0.0000    0.0000 C   0  0  0  0  0  0  0  0  0  0  0  0
    0.0000    0.0000    0.0000 C   0  0  0  0  0  0  0  0  0  0  0  0
    0.0000    0.0000    0.0000 N   0  0  0  0  0  0  0  0  0  0  0  0
    0.0000    0.0000    0.0000 C   0  0  0  0  0  0  0  0  0  0  0  0
    0.0000    0.0000    0.0000 O   0  0  0  0  0  0  0  0  0  0  0  0
    0.0000    0.0000    0.0000 C   0  0  0  0  0  0  0  0  0  0  0  0
    0.0000    0.0000    0.0000 C   0  0  0  0  0  0  0  0  0  0  0  0
    0.0000    0.0000    0.0000 C   0  0  0  0  0  0  0  0  0  0  0  0
    0.0000    0.0000    0.0000 C   0  0  0  0  0  0  0  0  0  0  0  0
    0.0000    0.0000    0.0000 C   0  0  0  0  0  0  0  0  0  0  0  0
    0.0000    0.0000    0.0000 O   0  0  0  0  0  0  0  0  0  0  0  0
    0.0000    0.0000    0.0000 C   0  0  0  0  0  0  0  0  0  0  0  0
    0.0000    0.0000    0.0000 C   0  0  0  0  0  0  0  0  0  0  0  0
    0.0000    0.0000    0.0000 C   0  0  0  0  0  0  0  0  0  0  0  0
    0.0000    0.0000    0.0000 C   0  0  0  0  0  0  0  0  0  0  0  0
    0.0000    0.0000    0.0000 N   0  0  0  0  0  0  0  0  0  0  0  0
    0.0000    0.0000    0.0000 C   0  0  0  0  0  0  0  0  0  0  0  0
    0.0000    0.0000    0.0000 N   0  0  0  0  0  0  0  0  0  0  0  0
    0.0000    0.0000    0.0000 C   0  0  0  0  0  0  0  0  0  0  0  0
    0.0000    0.0000    0.0000 N   0  0  0  0  0  0  0  0  0  0  0  0
    0.0000    0.0000    0.0000 C   0  0  0  0  0  0  0  0  0  0  0  0
    0.0000    0.0000    0.0000 C   0  0  0  0  0  0  0  0  0  0  0  0
    0.0000    0.0000    0.0000 C   0  0  0  0  0  0  0  0  0  0  0  0
    0.0000    0.0000    0.0000 C   0  0  0  0  0  0  0  0  0  0  0  0
    0.0000    0.0000    0.0000 C   0  0  0  0  0  0  0  0  0  0  0  0
    0.0000    0.0000    0.0000 C   0  0  0  0  0  0  0  0  0  0  0  0
    0.0000    0.0000    0.0000 C   0  0  0  0  0  0  0  0  0  0  0  0
    0.0000    0.0000    0.0000 C   0  0  0  0  0  0  0  0  0  0  0  0
    0.0000    0.0000    0.0000 C   0  0  0  0  0  0  0  0  0  0  0  0
    0.0000    0.0000    0.0000 C   0  0  0  0  0  0  0  0  0  0  0  0
    0.0000    0.0000    0.0000 C   0  0  0  0  0  0  0  0  0  0  0  0
    0.0000    0.0000    0.0000 C   0  0  0  0  0  0  0  0  0  0  0  0
  1  2  1  0
  2  3  2  0
  3  4  1  0
  4  5  2  0
  5  6  1  0
  6  7  2  0
  7  8  1  0
  8  9  1  0
  9 10  2  0
  9 11  1  0
 11 12  2  0
 12 13  1  0
 13 14  2  0
 14 15  1  0
 15 16  1  0
 16 17  1  0
 17 18  2  0
 18 19  1  0
 19 20  2  0
 20 21  1  0
 21 22  2  0
 22 23  1  0
 23 24  2  0
 24 25  1  0
 25 26  1  0
 26 27  2  0
 27 28  1  0
 28 29  2  0
 29 30  1  0
 30 31  2  0
 30 32  1  0
 32 33  3  0
 24 34  1  0
 34 35  2  0
 14 36  1  0
 36 37  2  0
  7  2  1  0
 37 11  1  0
 35 17  1  0
 34 20  1  0
 31 26  1  0
M  END
>  <pIC50>  (626) 
5.16

>  <ChEMBL_ID>  (626) 
CHEMBL3218000

>  <document_journal>  (626) 
MedChemComm

>  <bao_endpoint>  (626) 
BAO_0000190

>  <potential_duplicate>  (626) 
False

>  <uo_units>  (626) 
UO_0000065

>  <canonical_smiles>  (626) 
Nc1ccccc1NC(=O)c2ccc(COc3ccc4ncnc(Nc5cccc(c5)C#C)c4c3)cc2

>  <parent_molecule_chembl_id>  (626) 
CHEMBL3218000

>  <assay_type>  (626) 
B

>  <src_id>  (626) 
1

>  <ligand_efficiency>  (626) 
{u'le': u'0.19', u'bei': u'10.62', u'sei': u'5.05', u'lle': u'-1.06'}

>  <standard_flag>  (626) 
True

>  <molecule_chembl_id>  (626) 
CHEMBL3218000

>  <target_organism>  (626) 
Homo sapiens

>  <standard_units>  (626) 
nM

>  <record_id>  (626) 
2072336

>  <document_chembl_id>  (626) 
CHEMBL3217617

>  <bao_format>  (626) 
BAO_0000357

>  <data_validity_description>  (626) 
None

>  <activity_id>  (626) 
14543414

>  <standard_type>  (626) 
IC50

>  <target_chembl_id>  (626) 
CHEMBL1862

>  <data_validity_comment>  (626) 
None

>  <published_value>  (626) 
7

>  <document_year>  (626) 
2012

>  <target_pref_name>  (626) 
Tyrosine-protein kinase ABL

>  <assay_chembl_id>  (626) 
CHEMBL3226017

>  <standard_relation>  (626) 
=

>  <assay_description>  (626) 
Inhibition of recombinant Abl1 (unknown origin) using poly-Glu-Tyr peptide as substrate

>  <published_relation>  (626) 
=

>  <standard_value>  (626) 
7000

>  <qudt_units>  (626) 
http://www.openphacts.org/units/Nanomolar

>  <target_tax_id>  (626) 
9606

>  <bao_label>  (626) 
single protein format

>  <published_units>  (626) 
uM

>  <pchembl_value>  (626) 
5.16

>  <published_type>  (626) 
IC50

>  <activity_comment>  (626) 
None

$$$$

     RDKit          

 39 43  0  0  0  0  0  0  0  0999 V2000
    0.0000    0.0000    0.0000 N   0  0  0  0  0  0  0  0  0  0  0  0
    0.0000    0.0000    0.0000 C   0  0  0  0  0  0  0  0  0  0  0  0
    0.0000    0.0000    0.0000 C   0  0  0  0  0  0  0  0  0  0  0  0
    0.0000    0.0000    0.0000 C   0  0  0  0  0  0  0  0  0  0  0  0
    0.0000    0.0000    0.0000 C   0  0  0  0  0  0  0  0  0  0  0  0
    0.0000    0.0000    0.0000 C   0  0  0  0  0  0  0  0  0  0  0  0
    0.0000    0.0000    0.0000 C   0  0  0  0  0  0  0  0  0  0  0  0
    0.0000    0.0000    0.0000 N   0  0  0  0  0  0  0  0  0  0  0  0
    0.0000    0.0000    0.0000 C   0  0  0  0  0  0  0  0  0  0  0  0
    0.0000    0.0000    0.0000 O   0  0  0  0  0  0  0  0  0  0  0  0
    0.0000    0.0000    0.0000 C   0  0  0  0  0  0  0  0  0  0  0  0
    0.0000    0.0000    0.0000 C   0  0  0  0  0  0  0  0  0  0  0  0
    0.0000    0.0000    0.0000 C   0  0  0  0  0  0  0  0  0  0  0  0
    0.0000    0.0000    0.0000 C   0  0  0  0  0  0  0  0  0  0  0  0
    0.0000    0.0000    0.0000 C   0  0  0  0  0  0  0  0  0  0  0  0
    0.0000    0.0000    0.0000 N   0  0  0  0  0  0  0  0  0  0  0  0
    0.0000    0.0000    0.0000 C   0  0  0  0  0  0  0  0  0  0  0  0
    0.0000    0.0000    0.0000 S   0  0  0  0  0  0  0  0  0  0  0  0
    0.0000    0.0000    0.0000 O   0  0  0  0  0  0  0  0  0  0  0  0
    0.0000    0.0000    0.0000 O   0  0  0  0  0  0  0  0  0  0  0  0
    0.0000    0.0000    0.0000 C   0  0  0  0  0  0  0  0  0  0  0  0
    0.0000    0.0000    0.0000 C   0  0  0  0  0  0  0  0  0  0  0  0
    0.0000    0.0000    0.0000 C   0  0  0  0  0  0  0  0  0  0  0  0
    0.0000    0.0000    0.0000 C   0  0  0  0  0  0  0  0  0  0  0  0
    0.0000    0.0000    0.0000 N   0  0  0  0  0  0  0  0  0  0  0  0
    0.0000    0.0000    0.0000 C   0  0  0  0  0  0  0  0  0  0  0  0
    0.0000    0.0000    0.0000 N   0  0  0  0  0  0  0  0  0  0  0  0
    0.0000    0.0000    0.0000 C   0  0  0  0  0  0  0  0  0  0  0  0
    0.0000    0.0000    0.0000 N   0  0  0  0  0  0  0  0  0  0  0  0
    0.0000    0.0000    0.0000 C   0  0  0  0  0  0  0  0  0  0  0  0
    0.0000    0.0000    0.0000 C   0  0  0  0  0  0  0  0  0  0  0  0
    0.0000    0.0000    0.0000 C   0  0  0  0  0  0  0  0  0  0  0  0
    0.0000    0.0000    0.0000 C   0  0  0  0  0  0  0  0  0  0  0  0
    0.0000    0.0000    0.0000 C   0  0  0  0  0  0  0  0  0  0  0  0
    0.0000    0.0000    0.0000 C   0  0  0  0  0  0  0  0  0  0  0  0
    0.0000    0.0000    0.0000 C   0  0  0  0  0  0  0  0  0  0  0  0
    0.0000    0.0000    0.0000 C   0  0  0  0  0  0  0  0  0  0  0  0
    0.0000    0.0000    0.0000 C   0  0  0  0  0  0  0  0  0  0  0  0
    0.0000    0.0000    0.0000 C   0  0  0  0  0  0  0  0  0  0  0  0
  1  2  1  0
  2  3  2  0
  3  4  1  0
  4  5  2  0
  5  6  1  0
  6  7  2  0
  7  8  1  0
  8  9  1  0
  9 10  2  0
  9 11  1  0
 11 12  2  0
 12 13  1  0
 13 14  1  0
 14 15  2  0
 15 16  1  0
 16 17  1  0
 16 18  1  0
 18 19  2  0
 18 20  2  0
 18 21  1  0
 21 22  2  0
 22 23  1  0
 23 24  2  0
 24 25  1  0
 25 26  2  0
 26 27  1  0
 27 28  2  0
 28 29  1  0
 29 30  1  0
 30 31  2  0
 31 32  1  0
 32 33  2  0
 33 34  1  0
 34 35  2  0
 34 36  1  0
 36 37  3  0
 28 38  1  0
 38 39  2  0
  7  2  1  0
 17 13  2  0
 39 21  1  0
 38 24  1  0
 35 30  1  0
M  END
>  <pIC50>  (627) 
4.82

>  <ChEMBL_ID>  (627) 
CHEMBL3218001

>  <document_journal>  (627) 
MedChemComm

>  <bao_endpoint>  (627) 
BAO_0000190

>  <potential_duplicate>  (627) 
False

>  <uo_units>  (627) 
UO_0000065

>  <canonical_smiles>  (627) 
Nc1ccccc1NC(=O)\C=C\c2ccn(c2)S(=O)(=O)c3ccc4ncnc(Nc5cccc(c5)C#C)c4c3

>  <parent_molecule_chembl_id>  (627) 
CHEMBL3218001

>  <assay_type>  (627) 
B

>  <src_id>  (627) 
1

>  <ligand_efficiency>  (627) 
{u'le': u'0.17', u'bei': u'9.02', u'sei': u'3.44', u'lle': u'-0.74'}

>  <standard_flag>  (627) 
True

>  <molecule_chembl_id>  (627) 
CHEMBL3218001

>  <target_organism>  (627) 
Homo sapiens

>  <standard_units>  (627) 
nM

>  <record_id>  (627) 
2072337

>  <document_chembl_id>  (627) 
CHEMBL3217617

>  <bao_format>  (627) 
BAO_0000357

>  <data_validity_description>  (627) 
None

>  <activity_id>  (627) 
14543415

>  <standard_type>  (627) 
IC50

>  <target_chembl_id>  (627) 
CHEMBL1862

>  <data_validity_comment>  (627) 
None

>  <published_value>  (627) 
15

>  <document_year>  (627) 
2012

>  <target_pref_name>  (627) 
Tyrosine-protein kinase ABL

>  <assay_chembl_id>  (627) 
CHEMBL3226017

>  <standard_relation>  (627) 
=

>  <assay_description>  (627) 
Inhibition of recombinant Abl1 (unknown origin) using poly-Glu-Tyr peptide as substrate

>  <published_relation>  (627) 
=

>  <standard_value>  (627) 
15000

>  <qudt_units>  (627) 
http://www.openphacts.org/units/Nanomolar

>  <target_tax_id>  (627) 
9606

>  <bao_label>  (627) 
single protein format

>  <published_units>  (627) 
uM

>  <pchembl_value>  (627) 
4.82

>  <published_type>  (627) 
IC50

>  <activity_comment>  (627) 
None

$$$$

     RDKit          

 33 36  0  0  0  0  0  0  0  0999 V2000
    0.0000    0.0000    0.0000 O   0  0  0  0  0  0  0  0  0  0  0  0
    0.0000    0.0000    0.0000 N   0  0  0  0  0  0  0  0  0  0  0  0
    0.0000    0.0000    0.0000 C   0  0  0  0  0  0  0  0  0  0  0  0
    0.0000    0.0000    0.0000 O   0  0  0  0  0  0  0  0  0  0  0  0
    0.0000    0.0000    0.0000 C   0  0  0  0  0  0  0  0  0  0  0  0
    0.0000    0.0000    0.0000 C   0  0  0  0  0  0  0  0  0  0  0  0
    0.0000    0.0000    0.0000 C   0  0  0  0  0  0  0  0  0  0  0  0
    0.0000    0.0000    0.0000 C   0  0  0  0  0  0  0  0  0  0  0  0
    0.0000    0.0000    0.0000 C   0  0  0  0  0  0  0  0  0  0  0  0
    0.0000    0.0000    0.0000 N   0  0  0  0  0  0  0  0  0  0  0  0
    0.0000    0.0000    0.0000 C   0  0  0  0  0  0  0  0  0  0  0  0
    0.0000    0.0000    0.0000 S   0  0  0  0  0  0  0  0  0  0  0  0
    0.0000    0.0000    0.0000 O   0  0  0  0  0  0  0  0  0  0  0  0
    0.0000    0.0000    0.0000 O   0  0  0  0  0  0  0  0  0  0  0  0
    0.0000    0.0000    0.0000 C   0  0  0  0  0  0  0  0  0  0  0  0
    0.0000    0.0000    0.0000 C   0  0  0  0  0  0  0  0  0  0  0  0
    0.0000    0.0000    0.0000 C   0  0  0  0  0  0  0  0  0  0  0  0
    0.0000    0.0000    0.0000 C   0  0  0  0  0  0  0  0  0  0  0  0
    0.0000    0.0000    0.0000 N   0  0  0  0  0  0  0  0  0  0  0  0
    0.0000    0.0000    0.0000 C   0  0  0  0  0  0  0  0  0  0  0  0
    0.0000    0.0000    0.0000 N   0  0  0  0  0  0  0  0  0  0  0  0
    0.0000    0.0000    0.0000 C   0  0  0  0  0  0  0  0  0  0  0  0
    0.0000    0.0000    0.0000 N   0  0  0  0  0  0  0  0  0  0  0  0
    0.0000    0.0000    0.0000 C   0  0  0  0  0  0  0  0  0  0  0  0
    0.0000    0.0000    0.0000 C   0  0  0  0  0  0  0  0  0  0  0  0
    0.0000    0.0000    0.0000 C   0  0  0  0  0  0  0  0  0  0  0  0
    0.0000    0.0000    0.0000 C   0  0  0  0  0  0  0  0  0  0  0  0
    0.0000    0.0000    0.0000 C   0  0  0  0  0  0  0  0  0  0  0  0
    0.0000    0.0000    0.0000 C   0  0  0  0  0  0  0  0  0  0  0  0
    0.0000    0.0000    0.0000 C   0  0  0  0  0  0  0  0  0  0  0  0
    0.0000    0.0000    0.0000 C   0  0  0  0  0  0  0  0  0  0  0  0
    0.0000    0.0000    0.0000 C   0  0  0  0  0  0  0  0  0  0  0  0
    0.0000    0.0000    0.0000 C   0  0  0  0  0  0  0  0  0  0  0  0
  1  2  1  0
  2  3  1  0
  3  4  2  0
  3  5  1  0
  5  6  2  0
  6  7  1  0
  7  8  1  0
  8  9  2  0
  9 10  1  0
 10 11  1  0
 10 12  1  0
 12 13  2  0
 12 14  2  0
 12 15  1  0
 15 16  2  0
 16 17  1  0
 17 18  2  0
 18 19  1  0
 19 20  2  0
 20 21  1  0
 21 22  2  0
 22 23  1  0
 23 24  1  0
 24 25  2  0
 25 26  1  0
 26 27  2  0
 27 28  1  0
 28 29  2  0
 28 30  1  0
 30 31  3  0
 22 32  1  0
 32 33  2  0
 11  7  2  0
 33 15  1  0
 32 18  1  0
 29 24  1  0
M  END
>  <pIC50>  (628) 
4.57

>  <ChEMBL_ID>  (628) 
CHEMBL3218002

>  <document_journal>  (628) 
MedChemComm

>  <bao_endpoint>  (628) 
BAO_0000190

>  <potential_duplicate>  (628) 
False

>  <uo_units>  (628) 
UO_0000065

>  <canonical_smiles>  (628) 
ONC(=O)\C=C\c1ccn(c1)S(=O)(=O)c2ccc3ncnc(Nc4cccc(c4)C#C)c3c2

>  <parent_molecule_chembl_id>  (628) 
CHEMBL3218002

>  <assay_type>  (628) 
B

>  <src_id>  (628) 
1

>  <ligand_efficiency>  (628) 
{u'le': u'0.19', u'bei': u'9.94', u'sei': u'3.39', u'lle': u'0.03'}

>  <standard_flag>  (628) 
True

>  <molecule_chembl_id>  (628) 
CHEMBL3218002

>  <target_organism>  (628) 
Homo sapiens

>  <standard_units>  (628) 
nM

>  <record_id>  (628) 
2072338

>  <document_chembl_id>  (628) 
CHEMBL3217617

>  <bao_format>  (628) 
BAO_0000357

>  <data_validity_description>  (628) 
None

>  <activity_id>  (628) 
14543416

>  <standard_type>  (628) 
IC50

>  <target_chembl_id>  (628) 
CHEMBL1862

>  <data_validity_comment>  (628) 
None

>  <published_value>  (628) 
27

>  <document_year>  (628) 
2012

>  <target_pref_name>  (628) 
Tyrosine-protein kinase ABL

>  <assay_chembl_id>  (628) 
CHEMBL3226017

>  <standard_relation>  (628) 
=

>  <assay_description>  (628) 
Inhibition of recombinant Abl1 (unknown origin) using poly-Glu-Tyr peptide as substrate

>  <published_relation>  (628) 
=

>  <standard_value>  (628) 
27000

>  <qudt_units>  (628) 
http://www.openphacts.org/units/Nanomolar

>  <target_tax_id>  (628) 
9606

>  <bao_label>  (628) 
single protein format

>  <published_units>  (628) 
uM

>  <pchembl_value>  (628) 
4.57

>  <published_type>  (628) 
IC50

>  <activity_comment>  (628) 
None

$$$$

     RDKit          

 29 31  0  0  0  0  0  0  0  0999 V2000
    0.0000    0.0000    0.0000 C   0  0  0  0  0  0  0  0  0  0  0  0
    0.0000    0.0000    0.0000 O   0  0  0  0  0  0  0  0  0  0  0  0
    0.0000    0.0000    0.0000 C   0  0  0  0  0  0  0  0  0  0  0  0
    0.0000    0.0000    0.0000 C   0  0  0  0  0  0  0  0  0  0  0  0
    0.0000    0.0000    0.0000 O   0  0  0  0  0  0  0  0  0  0  0  0
    0.0000    0.0000    0.0000 C   0  0  0  0  0  0  0  0  0  0  0  0
    0.0000    0.0000    0.0000 C   0  0  0  0  0  0  0  0  0  0  0  0
    0.0000    0.0000    0.0000 C   0  0  0  0  0  0  0  0  0  0  0  0
    0.0000    0.0000    0.0000 N   0  0  0  0  0  0  0  0  0  0  0  0
    0.0000    0.0000    0.0000 C   0  0  0  0  0  0  0  0  0  0  0  0
    0.0000    0.0000    0.0000 N   0  0  0  0  0  0  0  0  0  0  0  0
    0.0000    0.0000    0.0000 C   0  0  0  0  0  0  0  0  0  0  0  0
    0.0000    0.0000    0.0000 N   0  0  0  0  0  0  0  0  0  0  0  0
    0.0000    0.0000    0.0000 C   0  0  0  0  0  0  0  0  0  0  0  0
    0.0000    0.0000    0.0000 C   0  0  0  0  0  0  0  0  0  0  0  0
    0.0000    0.0000    0.0000 C   0  0  0  0  0  0  0  0  0  0  0  0
    0.0000    0.0000    0.0000 C   0  0  0  0  0  0  0  0  0  0  0  0
    0.0000    0.0000    0.0000 C   0  0  0  0  0  0  0  0  0  0  0  0
    0.0000    0.0000    0.0000 C   0  0  0  0  0  0  0  0  0  0  0  0
    0.0000    0.0000    0.0000 C   0  0  0  0  0  0  0  0  0  0  0  0
    0.0000    0.0000    0.0000 C   0  0  0  0  0  0  0  0  0  0  0  0
    0.0000    0.0000    0.0000 C   0  0  0  0  0  0  0  0  0  0  0  0
    0.0000    0.0000    0.0000 C   0  0  0  0  0  0  0  0  0  0  0  0
    0.0000    0.0000    0.0000 C   0  0  0  0  0  0  0  0  0  0  0  0
    0.0000    0.0000    0.0000 O   0  0  0  0  0  0  0  0  0  0  0  0
    0.0000    0.0000    0.0000 C   0  0  0  0  0  0  0  0  0  0  0  0
    0.0000    0.0000    0.0000 C   0  0  0  0  0  0  0  0  0  0  0  0
    0.0000    0.0000    0.0000 O   0  0  0  0  0  0  0  0  0  0  0  0
    0.0000    0.0000    0.0000 C   0  0  0  0  0  0  0  0  0  0  0  0
  1  2  1  0
  2  3  1  0
  3  4  1  0
  4  5  1  0
  5  6  1  0
  6  7  2  0
  7  8  1  0
  8  9  2  0
  9 10  1  0
 10 11  2  0
 11 12  1  0
 12 13  1  0
 13 14  1  0
 14 15  2  0
 15 16  1  0
 16 17  2  0
 17 18  1  0
 18 19  2  0
 18 20  1  0
 20 21  3  0
 12 22  2  0
 22 23  1  0
 23 24  2  0
 24 25  1  0
 25 26  1  0
 26 27  1  0
 27 28  1  0
 28 29  1  0
 24  6  1  0
 22  8  1  0
 19 14  1  0
M  END
>  <pIC50>  (629) 
5.68

>  <ChEMBL_ID>  (629) 
CHEMBL553

>  <document_journal>  (629) 
MedChemComm

>  <bao_endpoint>  (629) 
BAO_0000190

>  <potential_duplicate>  (629) 
False

>  <uo_units>  (629) 
UO_0000065

>  <canonical_smiles>  (629) 
COCCOc1cc2ncnc(Nc3cccc(c3)C#C)c2cc1OCCOC

>  <parent_molecule_chembl_id>  (629) 
CHEMBL553

>  <assay_type>  (629) 
B

>  <src_id>  (629) 
1

>  <ligand_efficiency>  (629) 
{u'le': u'0.27', u'bei': u'14.43', u'sei': u'7.6', u'lle': u'1.37'}

>  <standard_flag>  (629) 
True

>  <molecule_chembl_id>  (629) 
CHEMBL553

>  <target_organism>  (629) 
Homo sapiens

>  <standard_units>  (629) 
nM

>  <record_id>  (629) 
2072340

>  <document_chembl_id>  (629) 
CHEMBL3217617

>  <bao_format>  (629) 
BAO_0000357

>  <data_validity_description>  (629) 
None

>  <activity_id>  (629) 
14543417

>  <standard_type>  (629) 
IC50

>  <target_chembl_id>  (629) 
CHEMBL1862

>  <data_validity_comment>  (629) 
None

>  <published_value>  (629) 
2.1

>  <document_year>  (629) 
2012

>  <target_pref_name>  (629) 
Tyrosine-protein kinase ABL

>  <assay_chembl_id>  (629) 
CHEMBL3226017

>  <standard_relation>  (629) 
=

>  <assay_description>  (629) 
Inhibition of recombinant Abl1 (unknown origin) using poly-Glu-Tyr peptide as substrate

>  <published_relation>  (629) 
=

>  <standard_value>  (629) 
2100

>  <qudt_units>  (629) 
http://www.openphacts.org/units/Nanomolar

>  <target_tax_id>  (629) 
9606

>  <bao_label>  (629) 
single protein format

>  <published_units>  (629) 
uM

>  <pchembl_value>  (629) 
5.68

>  <published_type>  (629) 
IC50

>  <activity_comment>  (629) 
None

$$$$

     RDKit          

 27 30  0  0  0  0  0  0  0  0999 V2000
    0.0000    0.0000    0.0000 C   0  0  0  0  0  0  0  0  0  0  0  0
    0.0000    0.0000    0.0000 C   0  0  0  0  0  0  0  0  0  0  0  0
    0.0000    0.0000    0.0000 N   0  0  0  0  0  0  0  0  0  0  0  0
    0.0000    0.0000    0.0000 N   0  0  0  0  0  0  0  0  0  0  0  0
    0.0000    0.0000    0.0000 C   0  0  0  0  0  0  0  0  0  0  0  0
    0.0000    0.0000    0.0000 C   0  0  0  0  0  0  0  0  0  0  0  0
    0.0000    0.0000    0.0000 N   0  0  0  0  0  0  0  0  0  0  0  0
    0.0000    0.0000    0.0000 N   0  0  0  0  0  0  0  0  0  0  0  0
    0.0000    0.0000    0.0000 C   0  0  0  0  0  0  0  0  0  0  0  0
    0.0000    0.0000    0.0000 N   0  0  0  0  0  0  0  0  0  0  0  0
    0.0000    0.0000    0.0000 C   0  0  0  0  0  0  0  0  0  0  0  0
    0.0000    0.0000    0.0000 C   0  0  0  0  0  0  0  0  0  0  0  0
    0.0000    0.0000    0.0000 C   0  0  0  0  0  0  0  0  0  0  0  0
    0.0000    0.0000    0.0000 C   0  0  0  0  0  0  0  0  0  0  0  0
    0.0000    0.0000    0.0000 C   0  0  0  0  0  0  0  0  0  0  0  0
    0.0000    0.0000    0.0000 C   0  0  0  0  0  0  0  0  0  0  0  0
    0.0000    0.0000    0.0000 S   0  0  0  0  0  0  0  0  0  0  0  0
    0.0000    0.0000    0.0000 O   0  0  0  0  0  0  0  0  0  0  0  0
    0.0000    0.0000    0.0000 O   0  0  0  0  0  0  0  0  0  0  0  0
    0.0000    0.0000    0.0000 N   0  0  0  0  0  0  0  0  0  0  0  0
    0.0000    0.0000    0.0000 C   0  0  0  0  0  0  0  0  0  0  0  0
    0.0000    0.0000    0.0000 C   0  0  0  0  0  0  0  0  0  0  0  0
    0.0000    0.0000    0.0000 N   0  0  0  0  0  0  0  0  0  0  0  0
    0.0000    0.0000    0.0000 C   0  0  0  0  0  0  0  0  0  0  0  0
    0.0000    0.0000    0.0000 C   0  0  0  0  0  0  0  0  0  0  0  0
    0.0000    0.0000    0.0000 N   0  0  0  0  0  0  0  0  0  0  0  0
    0.0000    0.0000    0.0000 C   0  0  0  0  0  0  0  0  0  0  0  0
  1  2  1  0
  2  3  2  0
  3  4  1  0
  4  5  1  0
  4  6  1  0
  6  7  2  0
  7  8  1  0
  8  9  2  0
  9 10  1  0
 10 11  1  0
 11 12  2  0
 12 13  1  0
 13 14  2  0
 14 15  1  0
 15 16  2  0
 14 17  1  0
 17 18  2  0
 17 19  2  0
 17 20  1  0
 20 21  1  0
 21 22  1  0
 22 23  1  0
 23 24  1  0
 24 25  1  0
  9 26  1  0
 26 27  2  0
 27  2  1  0
 27  6  1  0
 16 11  1  0
 25 20  1  0
M  END
>  <pIC50>  (630) 
5.24

>  <ChEMBL_ID>  (630) 
CHEMBL3237850

>  <document_journal>  (630) 
Eur. J. Med. Chem.

>  <bao_endpoint>  (630) 
BAO_0000190

>  <potential_duplicate>  (630) 
False

>  <uo_units>  (630) 
UO_0000065

>  <canonical_smiles>  (630) 
Cc1nn(C)c2nnc(Nc3ccc(cc3)S(=O)(=O)N4CCNCC4)nc12

>  <parent_molecule_chembl_id>  (630) 
CHEMBL3237850

>  <assay_type>  (630) 
B

>  <src_id>  (630) 
1

>  <ligand_efficiency>  (630) 
{u'le': u'0.26', u'bei': u'13.48', u'sei': u'4.15', u'lle': u'4.29'}

>  <standard_flag>  (630) 
True

>  <molecule_chembl_id>  (630) 
CHEMBL3237850

>  <target_organism>  (630) 
Homo sapiens

>  <standard_units>  (630) 
nM

>  <record_id>  (630) 
2087291

>  <document_chembl_id>  (630) 
CHEMBL3232722

>  <bao_format>  (630) 
BAO_0000219

>  <data_validity_description>  (630) 
None

>  <activity_id>  (630) 
14585645

>  <standard_type>  (630) 
IC50

>  <target_chembl_id>  (630) 
CHEMBL1862

>  <data_validity_comment>  (630) 
None

>  <published_value>  (630) 
5.8

>  <document_year>  (630) 
2014

>  <target_pref_name>  (630) 
Tyrosine-protein kinase ABL

>  <assay_chembl_id>  (630) 
CHEMBL3239579

>  <standard_relation>  (630) 
=

>  <assay_description>  (630) 
Inhibition of recombinant Abl kinase (unknown origin) expressed in Sf9 cells using GGEAIYAAPFKK as substrate in presence of [gamma33P]ATP

>  <published_relation>  (630) 
=

>  <standard_value>  (630) 
5800

>  <qudt_units>  (630) 
http://www.openphacts.org/units/Nanomolar

>  <target_tax_id>  (630) 
9606

>  <bao_label>  (630) 
cell-based format

>  <published_units>  (630) 
uM

>  <pchembl_value>  (630) 
5.24

>  <published_type>  (630) 
IC50

>  <activity_comment>  (630) 
None

$$$$

     RDKit          

 25 27  0  0  0  0  0  0  0  0999 V2000
    0.0000    0.0000    0.0000 C   0  0  0  0  0  0  0  0  0  0  0  0
    0.0000    0.0000    0.0000 C   0  0  0  0  0  0  0  0  0  0  0  0
    0.0000    0.0000    0.0000 N   0  0  0  0  0  0  0  0  0  0  0  0
    0.0000    0.0000    0.0000 N   0  0  0  0  0  0  0  0  0  0  0  0
    0.0000    0.0000    0.0000 C   0  0  0  0  0  0  0  0  0  0  0  0
    0.0000    0.0000    0.0000 C   0  0  0  0  0  0  0  0  0  0  0  0
    0.0000    0.0000    0.0000 N   0  0  0  0  0  0  0  0  0  0  0  0
    0.0000    0.0000    0.0000 N   0  0  0  0  0  0  0  0  0  0  0  0
    0.0000    0.0000    0.0000 C   0  0  0  0  0  0  0  0  0  0  0  0
    0.0000    0.0000    0.0000 N   0  0  0  0  0  0  0  0  0  0  0  0
    0.0000    0.0000    0.0000 C   0  0  0  0  0  0  0  0  0  0  0  0
    0.0000    0.0000    0.0000 C   0  0  0  0  0  0  0  0  0  0  0  0
    0.0000    0.0000    0.0000 C   0  0  0  0  0  0  0  0  0  0  0  0
    0.0000    0.0000    0.0000 C   0  0  0  0  0  0  0  0  0  0  0  0
    0.0000    0.0000    0.0000 C   0  0  0  0  0  0  0  0  0  0  0  0
    0.0000    0.0000    0.0000 C   0  0  0  0  0  0  0  0  0  0  0  0
    0.0000    0.0000    0.0000 S   0  0  0  0  0  0  0  0  0  0  0  0
    0.0000    0.0000    0.0000 O   0  0  0  0  0  0  0  0  0  0  0  0
    0.0000    0.0000    0.0000 O   0  0  0  0  0  0  0  0  0  0  0  0
    0.0000    0.0000    0.0000 N   0  0  0  0  0  0  0  0  0  0  0  0
    0.0000    0.0000    0.0000 C   0  0  0  0  0  0  0  0  0  0  0  0
    0.0000    0.0000    0.0000 C   0  0  0  0  0  0  0  0  0  0  0  0
    0.0000    0.0000    0.0000 O   0  0  0  0  0  0  0  0  0  0  0  0
    0.0000    0.0000    0.0000 N   0  0  0  0  0  0  0  0  0  0  0  0
    0.0000    0.0000    0.0000 C   0  0  0  0  0  0  0  0  0  0  0  0
  1  2  1  0
  2  3  2  0
  3  4  1  0
  4  5  1  0
  4  6  1  0
  6  7  2  0
  7  8  1  0
  8  9  2  0
  9 10  1  0
 10 11  1  0
 11 12  2  0
 12 13  1  0
 13 14  2  0
 14 15  1  0
 15 16  2  0
 14 17  1  0
 17 18  2  0
 17 19  2  0
 17 20  1  0
 20 21  1  0
 21 22  1  0
 22 23  1  0
  9 24  1  0
 24 25  2  0
 25  2  1  0
 25  6  1  0
 16 11  1  0
M  END
>  <pIC50>  (631) 
4.41

>  <ChEMBL_ID>  (631) 
CHEMBL3237851

>  <document_journal>  (631) 
Eur. J. Med. Chem.

>  <bao_endpoint>  (631) 
BAO_0000190

>  <potential_duplicate>  (631) 
False

>  <uo_units>  (631) 
UO_0000065

>  <canonical_smiles>  (631) 
Cc1nn(C)c2nnc(Nc3ccc(cc3)S(=O)(=O)NCCO)nc12

>  <parent_molecule_chembl_id>  (631) 
CHEMBL3237851

>  <assay_type>  (631) 
B

>  <src_id>  (631) 
1

>  <ligand_efficiency>  (631) 
{u'le': u'0.24', u'bei': u'12.13', u'sei': u'3.08', u'lle': u'3.62'}

>  <standard_flag>  (631) 
True

>  <molecule_chembl_id>  (631) 
CHEMBL3237851

>  <target_organism>  (631) 
Homo sapiens

>  <standard_units>  (631) 
nM

>  <record_id>  (631) 
2087292

>  <document_chembl_id>  (631) 
CHEMBL3232722

>  <bao_format>  (631) 
BAO_0000219

>  <data_validity_description>  (631) 
None

>  <activity_id>  (631) 
14585646

>  <standard_type>  (631) 
IC50

>  <target_chembl_id>  (631) 
CHEMBL1862

>  <data_validity_comment>  (631) 
None

>  <published_value>  (631) 
39

>  <document_year>  (631) 
2014

>  <target_pref_name>  (631) 
Tyrosine-protein kinase ABL

>  <assay_chembl_id>  (631) 
CHEMBL3239579

>  <standard_relation>  (631) 
=

>  <assay_description>  (631) 
Inhibition of recombinant Abl kinase (unknown origin) expressed in Sf9 cells using GGEAIYAAPFKK as substrate in presence of [gamma33P]ATP

>  <published_relation>  (631) 
=

>  <standard_value>  (631) 
39000

>  <qudt_units>  (631) 
http://www.openphacts.org/units/Nanomolar

>  <target_tax_id>  (631) 
9606

>  <bao_label>  (631) 
cell-based format

>  <published_units>  (631) 
uM

>  <pchembl_value>  (631) 
4.41

>  <published_type>  (631) 
IC50

>  <activity_comment>  (631) 
None

$$$$

     RDKit          

 28 31  0  0  0  0  0  0  0  0999 V2000
    0.0000    0.0000    0.0000 C   0  0  0  0  0  0  0  0  0  0  0  0
    0.0000    0.0000    0.0000 C   0  0  0  0  0  0  0  0  0  0  0  0
    0.0000    0.0000    0.0000 N   0  0  0  0  0  0  0  0  0  0  0  0
    0.0000    0.0000    0.0000 N   0  0  0  0  0  0  0  0  0  0  0  0
    0.0000    0.0000    0.0000 C   0  0  0  0  0  0  0  0  0  0  0  0
    0.0000    0.0000    0.0000 C   0  0  0  0  0  0  0  0  0  0  0  0
    0.0000    0.0000    0.0000 N   0  0  0  0  0  0  0  0  0  0  0  0
    0.0000    0.0000    0.0000 N   0  0  0  0  0  0  0  0  0  0  0  0
    0.0000    0.0000    0.0000 C   0  0  0  0  0  0  0  0  0  0  0  0
    0.0000    0.0000    0.0000 N   0  0  0  0  0  0  0  0  0  0  0  0
    0.0000    0.0000    0.0000 C   0  0  0  0  0  0  0  0  0  0  0  0
    0.0000    0.0000    0.0000 C   0  0  0  0  0  0  0  0  0  0  0  0
    0.0000    0.0000    0.0000 C   0  0  0  0  0  0  0  0  0  0  0  0
    0.0000    0.0000    0.0000 C   0  0  0  0  0  0  0  0  0  0  0  0
    0.0000    0.0000    0.0000 C   0  0  0  0  0  0  0  0  0  0  0  0
    0.0000    0.0000    0.0000 C   0  0  0  0  0  0  0  0  0  0  0  0
    0.0000    0.0000    0.0000 S   0  0  0  0  0  0  0  0  0  0  0  0
    0.0000    0.0000    0.0000 O   0  0  0  0  0  0  0  0  0  0  0  0
    0.0000    0.0000    0.0000 O   0  0  0  0  0  0  0  0  0  0  0  0
    0.0000    0.0000    0.0000 N   0  0  0  0  0  0  0  0  0  0  0  0
    0.0000    0.0000    0.0000 C   0  0  0  0  0  0  0  0  0  0  0  0
    0.0000    0.0000    0.0000 C   0  0  0  0  0  0  0  0  0  0  0  0
    0.0000    0.0000    0.0000 C   0  0  0  0  0  0  0  0  0  0  0  0
    0.0000    0.0000    0.0000 N   0  0  0  0  0  0  0  0  0  0  0  0
    0.0000    0.0000    0.0000 C   0  0  0  0  0  0  0  0  0  0  0  0
    0.0000    0.0000    0.0000 C   0  0  0  0  0  0  0  0  0  0  0  0
    0.0000    0.0000    0.0000 N   0  0  0  0  0  0  0  0  0  0  0  0
    0.0000    0.0000    0.0000 C   0  0  0  0  0  0  0  0  0  0  0  0
  1  2  1  0
  2  3  2  0
  3  4  1  0
  4  5  1  0
  4  6  1  0
  6  7  2  0
  7  8  1  0
  8  9  2  0
  9 10  1  0
 10 11  1  0
 11 12  2  0
 12 13  1  0
 13 14  2  0
 14 15  1  0
 15 16  2  0
 14 17  1  0
 17 18  2  0
 17 19  2  0
 17 20  1  0
 20 21  1  0
 21 22  1  0
 22 23  1  0
 23 24  1  0
 24 25  1  0
 25 26  1  0
  9 27  1  0
 27 28  2  0
 28  2  1  0
 28  6  1  0
 16 11  1  0
 26 20  1  0
M  END
>  <pIC50>  (632) 
5.23

>  <ChEMBL_ID>  (632) 
CHEMBL3237852

>  <document_journal>  (632) 
Eur. J. Med. Chem.

>  <bao_endpoint>  (632) 
BAO_0000190

>  <potential_duplicate>  (632) 
False

>  <uo_units>  (632) 
UO_0000065

>  <canonical_smiles>  (632) 
Cc1nn(C)c2nnc(Nc3ccc(cc3)S(=O)(=O)N4CCCNCC4)nc12

>  <parent_molecule_chembl_id>  (632) 
CHEMBL3237852

>  <assay_type>  (632) 
B

>  <src_id>  (632) 
1

>  <ligand_efficiency>  (632) 
{u'le': u'0.26', u'bei': u'12.99', u'sei': u'4.14', u'lle': u'4.21'}

>  <standard_flag>  (632) 
True

>  <molecule_chembl_id>  (632) 
CHEMBL3237852

>  <target_organism>  (632) 
Homo sapiens

>  <standard_units>  (632) 
nM

>  <record_id>  (632) 
2087293

>  <document_chembl_id>  (632) 
CHEMBL3232722

>  <bao_format>  (632) 
BAO_0000219

>  <data_validity_description>  (632) 
None

>  <activity_id>  (632) 
14585647

>  <standard_type>  (632) 
IC50

>  <target_chembl_id>  (632) 
CHEMBL1862

>  <data_validity_comment>  (632) 
None

>  <published_value>  (632) 
5.9

>  <document_year>  (632) 
2014

>  <target_pref_name>  (632) 
Tyrosine-protein kinase ABL

>  <assay_chembl_id>  (632) 
CHEMBL3239579

>  <standard_relation>  (632) 
=

>  <assay_description>  (632) 
Inhibition of recombinant Abl kinase (unknown origin) expressed in Sf9 cells using GGEAIYAAPFKK as substrate in presence of [gamma33P]ATP

>  <published_relation>  (632) 
=

>  <standard_value>  (632) 
5900

>  <qudt_units>  (632) 
http://www.openphacts.org/units/Nanomolar

>  <target_tax_id>  (632) 
9606

>  <bao_label>  (632) 
cell-based format

>  <published_units>  (632) 
uM

>  <pchembl_value>  (632) 
5.23

>  <published_type>  (632) 
IC50

>  <activity_comment>  (632) 
None

$$$$

     RDKit          

 25 27  0  0  0  0  0  0  0  0999 V2000
    0.0000    0.0000    0.0000 C   0  0  0  0  0  0  0  0  0  0  0  0
    0.0000    0.0000    0.0000 C   0  0  0  0  0  0  0  0  0  0  0  0
    0.0000    0.0000    0.0000 N   0  0  0  0  0  0  0  0  0  0  0  0
    0.0000    0.0000    0.0000 N   0  0  0  0  0  0  0  0  0  0  0  0
    0.0000    0.0000    0.0000 C   0  0  0  0  0  0  0  0  0  0  0  0
    0.0000    0.0000    0.0000 C   0  0  0  0  0  0  0  0  0  0  0  0
    0.0000    0.0000    0.0000 N   0  0  0  0  0  0  0  0  0  0  0  0
    0.0000    0.0000    0.0000 N   0  0  0  0  0  0  0  0  0  0  0  0
    0.0000    0.0000    0.0000 C   0  0  0  0  0  0  0  0  0  0  0  0
    0.0000    0.0000    0.0000 N   0  0  0  0  0  0  0  0  0  0  0  0
    0.0000    0.0000    0.0000 C   0  0  0  0  0  0  0  0  0  0  0  0
    0.0000    0.0000    0.0000 C   0  0  0  0  0  0  0  0  0  0  0  0
    0.0000    0.0000    0.0000 C   0  0  0  0  0  0  0  0  0  0  0  0
    0.0000    0.0000    0.0000 C   0  0  0  0  0  0  0  0  0  0  0  0
    0.0000    0.0000    0.0000 C   0  0  0  0  0  0  0  0  0  0  0  0
    0.0000    0.0000    0.0000 C   0  0  0  0  0  0  0  0  0  0  0  0
    0.0000    0.0000    0.0000 S   0  0  0  0  0  0  0  0  0  0  0  0
    0.0000    0.0000    0.0000 O   0  0  0  0  0  0  0  0  0  0  0  0
    0.0000    0.0000    0.0000 O   0  0  0  0  0  0  0  0  0  0  0  0
    0.0000    0.0000    0.0000 N   0  0  0  0  0  0  0  0  0  0  0  0
    0.0000    0.0000    0.0000 C   0  0  0  0  0  0  0  0  0  0  0  0
    0.0000    0.0000    0.0000 C   0  0  0  0  0  0  0  0  0  0  0  0
    0.0000    0.0000    0.0000 N   0  0  0  0  0  0  0  0  0  0  0  0
    0.0000    0.0000    0.0000 N   0  0  0  0  0  0  0  0  0  0  0  0
    0.0000    0.0000    0.0000 C   0  0  0  0  0  0  0  0  0  0  0  0
  1  2  1  0
  2  3  2  0
  3  4  1  0
  4  5  1  0
  4  6  1  0
  6  7  2  0
  7  8  1  0
  8  9  2  0
  9 10  1  0
 10 11  1  0
 11 12  2  0
 12 13  1  0
 13 14  2  0
 14 15  1  0
 15 16  2  0
 14 17  1  0
 17 18  2  0
 17 19  2  0
 17 20  1  0
 20 21  1  0
 21 22  1  0
 22 23  1  0
  9 24  1  0
 24 25  2  0
 25  2  1  0
 25  6  1  0
 16 11  1  0
M  END
>  <pIC50>  (633) 
4.82

>  <ChEMBL_ID>  (633) 
CHEMBL3237854

>  <document_journal>  (633) 
Eur. J. Med. Chem.

>  <bao_endpoint>  (633) 
BAO_0000190

>  <potential_duplicate>  (633) 
False

>  <uo_units>  (633) 
UO_0000065

>  <canonical_smiles>  (633) 
Cc1nn(C)c2nnc(Nc3ccc(cc3)S(=O)(=O)NCCN)nc12

>  <parent_molecule_chembl_id>  (633) 
CHEMBL3237854

>  <assay_type>  (633) 
B

>  <src_id>  (633) 
1

>  <ligand_efficiency>  (633) 
{u'le': u'0.26', u'bei': u'13.31', u'sei': u'3.24', u'lle': u'4.32'}

>  <standard_flag>  (633) 
True

>  <molecule_chembl_id>  (633) 
CHEMBL3237854

>  <target_organism>  (633) 
Homo sapiens

>  <standard_units>  (633) 
nM

>  <record_id>  (633) 
2087296

>  <document_chembl_id>  (633) 
CHEMBL3232722

>  <bao_format>  (633) 
BAO_0000219

>  <data_validity_description>  (633) 
None

>  <activity_id>  (633) 
14585650

>  <standard_type>  (633) 
IC50

>  <target_chembl_id>  (633) 
CHEMBL1862

>  <data_validity_comment>  (633) 
None

>  <published_value>  (633) 
15

>  <document_year>  (633) 
2014

>  <target_pref_name>  (633) 
Tyrosine-protein kinase ABL

>  <assay_chembl_id>  (633) 
CHEMBL3239579

>  <standard_relation>  (633) 
=

>  <assay_description>  (633) 
Inhibition of recombinant Abl kinase (unknown origin) expressed in Sf9 cells using GGEAIYAAPFKK as substrate in presence of [gamma33P]ATP

>  <published_relation>  (633) 
=

>  <standard_value>  (633) 
15000

>  <qudt_units>  (633) 
http://www.openphacts.org/units/Nanomolar

>  <target_tax_id>  (633) 
9606

>  <bao_label>  (633) 
cell-based format

>  <published_units>  (633) 
uM

>  <pchembl_value>  (633) 
4.82

>  <published_type>  (633) 
IC50

>  <activity_comment>  (633) 
None

$$$$

     RDKit          

 22 24  0  0  0  0  0  0  0  0999 V2000
    0.0000    0.0000    0.0000 C   0  0  0  0  0  0  0  0  0  0  0  0
    0.0000    0.0000    0.0000 C   0  0  0  0  0  0  0  0  0  0  0  0
    0.0000    0.0000    0.0000 N   0  0  0  0  0  0  0  0  0  0  0  0
    0.0000    0.0000    0.0000 N   0  0  0  0  0  0  0  0  0  0  0  0
    0.0000    0.0000    0.0000 C   0  0  0  0  0  0  0  0  0  0  0  0
    0.0000    0.0000    0.0000 C   0  0  0  0  0  0  0  0  0  0  0  0
    0.0000    0.0000    0.0000 N   0  0  0  0  0  0  0  0  0  0  0  0
    0.0000    0.0000    0.0000 N   0  0  0  0  0  0  0  0  0  0  0  0
    0.0000    0.0000    0.0000 C   0  0  0  0  0  0  0  0  0  0  0  0
    0.0000    0.0000    0.0000 N   0  0  0  0  0  0  0  0  0  0  0  0
    0.0000    0.0000    0.0000 C   0  0  0  0  0  0  0  0  0  0  0  0
    0.0000    0.0000    0.0000 C   0  0  0  0  0  0  0  0  0  0  0  0
    0.0000    0.0000    0.0000 C   0  0  0  0  0  0  0  0  0  0  0  0
    0.0000    0.0000    0.0000 C   0  0  0  0  0  0  0  0  0  0  0  0
    0.0000    0.0000    0.0000 C   0  0  0  0  0  0  0  0  0  0  0  0
    0.0000    0.0000    0.0000 C   0  0  0  0  0  0  0  0  0  0  0  0
    0.0000    0.0000    0.0000 S   0  0  0  0  0  0  0  0  0  0  0  0
    0.0000    0.0000    0.0000 O   0  0  0  0  0  0  0  0  0  0  0  0
    0.0000    0.0000    0.0000 O   0  0  0  0  0  0  0  0  0  0  0  0
    0.0000    0.0000    0.0000 N   0  0  0  0  0  0  0  0  0  0  0  0
    0.0000    0.0000    0.0000 N   0  0  0  0  0  0  0  0  0  0  0  0
    0.0000    0.0000    0.0000 C   0  0  0  0  0  0  0  0  0  0  0  0
  1  2  1  0
  2  3  2  0
  3  4  1  0
  4  5  1  0
  4  6  1  0
  6  7  2  0
  7  8  1  0
  8  9  2  0
  9 10  1  0
 10 11  1  0
 11 12  2  0
 12 13  1  0
 13 14  2  0
 14 15  1  0
 15 16  2  0
 14 17  1  0
 17 18  2  0
 17 19  2  0
 17 20  1  0
  9 21  1  0
 21 22  2  0
 22  2  1  0
 22  6  1  0
 16 11  1  0
M  END
>  <pIC50>  (634) 
4.48

>  <ChEMBL_ID>  (634) 
CHEMBL3237855

>  <document_journal>  (634) 
Eur. J. Med. Chem.

>  <bao_endpoint>  (634) 
BAO_0000190

>  <potential_duplicate>  (634) 
False

>  <uo_units>  (634) 
UO_0000065

>  <canonical_smiles>  (634) 
Cc1nn(C)c2nnc(Nc3ccc(cc3)S(=O)(=O)N)nc12

>  <parent_molecule_chembl_id>  (634) 
CHEMBL3237855

>  <assay_type>  (634) 
B

>  <src_id>  (634) 
1

>  <ligand_efficiency>  (634) 
{u'le': u'0.28', u'bei': u'14.03', u'sei': u'3.27', u'lle': u'3.36'}

>  <standard_flag>  (634) 
True

>  <molecule_chembl_id>  (634) 
CHEMBL3237855

>  <target_organism>  (634) 
Homo sapiens

>  <standard_units>  (634) 
nM

>  <record_id>  (634) 
2087297

>  <document_chembl_id>  (634) 
CHEMBL3232722

>  <bao_format>  (634) 
BAO_0000219

>  <data_validity_description>  (634) 
None

>  <activity_id>  (634) 
14585651

>  <standard_type>  (634) 
IC50

>  <target_chembl_id>  (634) 
CHEMBL1862

>  <data_validity_comment>  (634) 
None

>  <published_value>  (634) 
33

>  <document_year>  (634) 
2014

>  <target_pref_name>  (634) 
Tyrosine-protein kinase ABL

>  <assay_chembl_id>  (634) 
CHEMBL3239579

>  <standard_relation>  (634) 
=

>  <assay_description>  (634) 
Inhibition of recombinant Abl kinase (unknown origin) expressed in Sf9 cells using GGEAIYAAPFKK as substrate in presence of [gamma33P]ATP

>  <published_relation>  (634) 
=

>  <standard_value>  (634) 
33000

>  <qudt_units>  (634) 
http://www.openphacts.org/units/Nanomolar

>  <target_tax_id>  (634) 
9606

>  <bao_label>  (634) 
cell-based format

>  <published_units>  (634) 
uM

>  <pchembl_value>  (634) 
4.48

>  <published_type>  (634) 
IC50

>  <activity_comment>  (634) 
None

$$$$

     RDKit          

 30 33  0  0  0  0  0  0  0  0999 V2000
    0.0000    0.0000    0.0000 C   0  0  0  0  0  0  0  0  0  0  0  0
    0.0000    0.0000    0.0000 C   0  0  0  0  0  0  0  0  0  0  0  0
    0.0000    0.0000    0.0000 N   0  0  0  0  0  0  0  0  0  0  0  0
    0.0000    0.0000    0.0000 N   0  0  0  0  0  0  0  0  0  0  0  0
    0.0000    0.0000    0.0000 C   0  0  0  0  0  0  0  0  0  0  0  0
    0.0000    0.0000    0.0000 C   0  0  0  0  0  0  0  0  0  0  0  0
    0.0000    0.0000    0.0000 N   0  0  0  0  0  0  0  0  0  0  0  0
    0.0000    0.0000    0.0000 N   0  0  0  0  0  0  0  0  0  0  0  0
    0.0000    0.0000    0.0000 C   0  0  0  0  0  0  0  0  0  0  0  0
    0.0000    0.0000    0.0000 N   0  0  0  0  0  0  0  0  0  0  0  0
    0.0000    0.0000    0.0000 C   0  0  0  0  0  0  0  0  0  0  0  0
    0.0000    0.0000    0.0000 C   0  0  0  0  0  0  0  0  0  0  0  0
    0.0000    0.0000    0.0000 C   0  0  0  0  0  0  0  0  0  0  0  0
    0.0000    0.0000    0.0000 C   0  0  0  0  0  0  0  0  0  0  0  0
    0.0000    0.0000    0.0000 C   0  0  0  0  0  0  0  0  0  0  0  0
    0.0000    0.0000    0.0000 C   0  0  0  0  0  0  0  0  0  0  0  0
    0.0000    0.0000    0.0000 S   0  0  0  0  0  0  0  0  0  0  0  0
    0.0000    0.0000    0.0000 O   0  0  0  0  0  0  0  0  0  0  0  0
    0.0000    0.0000    0.0000 O   0  0  0  0  0  0  0  0  0  0  0  0
    0.0000    0.0000    0.0000 N   0  0  0  0  0  0  0  0  0  0  0  0
    0.0000    0.0000    0.0000 C   0  0  0  0  0  0  0  0  0  0  0  0
    0.0000    0.0000    0.0000 C   0  0  0  0  0  0  0  0  0  0  0  0
    0.0000    0.0000    0.0000 N   0  0  0  0  0  0  0  0  0  0  0  0
    0.0000    0.0000    0.0000 C   0  0  0  0  0  0  0  0  0  0  0  0
    0.0000    0.0000    0.0000 C   0  0  0  0  0  0  0  0  0  0  0  0
    0.0000    0.0000    0.0000 O   0  0  0  0  0  0  0  0  0  0  0  0
    0.0000    0.0000    0.0000 C   0  0  0  0  0  0  0  0  0  0  0  0
    0.0000    0.0000    0.0000 C   0  0  0  0  0  0  0  0  0  0  0  0
    0.0000    0.0000    0.0000 N   0  0  0  0  0  0  0  0  0  0  0  0
    0.0000    0.0000    0.0000 C   0  0  0  0  0  0  0  0  0  0  0  0
  1  2  1  0
  2  3  2  0
  3  4  1  0
  4  5  1  0
  4  6  1  0
  6  7  2  0
  7  8  1  0
  8  9  2  0
  9 10  1  0
 10 11  1  0
 11 12  2  0
 12 13  1  0
 13 14  2  0
 14 15  1  0
 15 16  2  0
 14 17  1  0
 17 18  2  0
 17 19  2  0
 17 20  1  0
 20 21  1  0
 21 22  1  0
 22 23  1  0
 23 24  1  0
 24 25  1  0
 25 26  1  0
 26 27  1  0
 27 28  1  0
  9 29  1  0
 29 30  2  0
 30  2  1  0
 30  6  1  0
 16 11  1  0
 28 23  1  0
M  END
>  <pIC50>  (635) 
4.7

>  <ChEMBL_ID>  (635) 
CHEMBL3237857

>  <document_journal>  (635) 
Eur. J. Med. Chem.

>  <bao_endpoint>  (635) 
BAO_0000190

>  <potential_duplicate>  (635) 
False

>  <uo_units>  (635) 
UO_0000065

>  <canonical_smiles>  (635) 
Cc1nn(C)c2nnc(Nc3ccc(cc3)S(=O)(=O)NCCN4CCOCC4)nc12

>  <parent_molecule_chembl_id>  (635) 
CHEMBL3237857

>  <assay_type>  (635) 
B

>  <src_id>  (635) 
1

>  <ligand_efficiency>  (635) 
{u'le': u'0.21', u'bei': u'10.86', u'sei': u'3.47', u'lle': u'3.55'}

>  <standard_flag>  (635) 
True

>  <molecule_chembl_id>  (635) 
CHEMBL3237857

>  <target_organism>  (635) 
Homo sapiens

>  <standard_units>  (635) 
nM

>  <record_id>  (635) 
2087299

>  <document_chembl_id>  (635) 
CHEMBL3232722

>  <bao_format>  (635) 
BAO_0000219

>  <data_validity_description>  (635) 
None

>  <activity_id>  (635) 
14585653

>  <standard_type>  (635) 
IC50

>  <target_chembl_id>  (635) 
CHEMBL1862

>  <data_validity_comment>  (635) 
None

>  <published_value>  (635) 
20

>  <document_year>  (635) 
2014

>  <target_pref_name>  (635) 
Tyrosine-protein kinase ABL

>  <assay_chembl_id>  (635) 
CHEMBL3239579

>  <standard_relation>  (635) 
=

>  <assay_description>  (635) 
Inhibition of recombinant Abl kinase (unknown origin) expressed in Sf9 cells using GGEAIYAAPFKK as substrate in presence of [gamma33P]ATP

>  <published_relation>  (635) 
=

>  <standard_value>  (635) 
20000

>  <qudt_units>  (635) 
http://www.openphacts.org/units/Nanomolar

>  <target_tax_id>  (635) 
9606

>  <bao_label>  (635) 
cell-based format

>  <published_units>  (635) 
uM

>  <pchembl_value>  (635) 
4.7

>  <published_type>  (635) 
IC50

>  <activity_comment>  (635) 
None

$$$$

     RDKit          

 27 29  0  0  0  0  0  0  0  0999 V2000
    0.0000    0.0000    0.0000 C   0  0  0  0  0  0  0  0  0  0  0  0
    0.0000    0.0000    0.0000 C   0  0  0  0  0  0  0  0  0  0  0  0
    0.0000    0.0000    0.0000 N   0  0  0  0  0  0  0  0  0  0  0  0
    0.0000    0.0000    0.0000 N   0  0  0  0  0  0  0  0  0  0  0  0
    0.0000    0.0000    0.0000 C   0  0  0  0  0  0  0  0  0  0  0  0
    0.0000    0.0000    0.0000 C   0  0  0  0  0  0  0  0  0  0  0  0
    0.0000    0.0000    0.0000 N   0  0  0  0  0  0  0  0  0  0  0  0
    0.0000    0.0000    0.0000 N   0  0  0  0  0  0  0  0  0  0  0  0
    0.0000    0.0000    0.0000 C   0  0  0  0  0  0  0  0  0  0  0  0
    0.0000    0.0000    0.0000 N   0  0  0  0  0  0  0  0  0  0  0  0
    0.0000    0.0000    0.0000 C   0  0  0  0  0  0  0  0  0  0  0  0
    0.0000    0.0000    0.0000 C   0  0  0  0  0  0  0  0  0  0  0  0
    0.0000    0.0000    0.0000 C   0  0  0  0  0  0  0  0  0  0  0  0
    0.0000    0.0000    0.0000 C   0  0  0  0  0  0  0  0  0  0  0  0
    0.0000    0.0000    0.0000 C   0  0  0  0  0  0  0  0  0  0  0  0
    0.0000    0.0000    0.0000 C   0  0  0  0  0  0  0  0  0  0  0  0
    0.0000    0.0000    0.0000 S   0  0  0  0  0  0  0  0  0  0  0  0
    0.0000    0.0000    0.0000 O   0  0  0  0  0  0  0  0  0  0  0  0
    0.0000    0.0000    0.0000 O   0  0  0  0  0  0  0  0  0  0  0  0
    0.0000    0.0000    0.0000 N   0  0  0  0  0  0  0  0  0  0  0  0
    0.0000    0.0000    0.0000 C   0  0  0  0  0  0  0  0  0  0  0  0
    0.0000    0.0000    0.0000 C   0  0  0  0  0  0  0  0  0  0  0  0
    0.0000    0.0000    0.0000 O   0  0  0  0  0  0  0  0  0  0  0  0
    0.0000    0.0000    0.0000 C   0  0  0  0  0  0  0  0  0  0  0  0
    0.0000    0.0000    0.0000 O   0  0  0  0  0  0  0  0  0  0  0  0
    0.0000    0.0000    0.0000 N   0  0  0  0  0  0  0  0  0  0  0  0
    0.0000    0.0000    0.0000 C   0  0  0  0  0  0  0  0  0  0  0  0
  1  2  1  0
  2  3  2  0
  3  4  1  0
  4  5  1  0
  4  6  1  0
  6  7  2  0
  7  8  1  0
  8  9  2  0
  9 10  1  0
 10 11  1  0
 11 12  2  0
 12 13  1  0
 13 14  2  0
 14 15  1  0
 15 16  2  0
 14 17  1  0
 17 18  2  0
 17 19  2  0
 17 20  1  0
 20 21  1  0
 21 22  1  0
 22 23  1  0
 22 24  1  0
 24 25  1  0
  9 26  1  0
 26 27  2  0
 27  2  1  0
 27  6  1  0
 16 11  1  0
M  END
>  <pIC50>  (636) 
4.47

>  <ChEMBL_ID>  (636) 
CHEMBL3237858

>  <document_journal>  (636) 
Eur. J. Med. Chem.

>  <bao_endpoint>  (636) 
BAO_0000190

>  <potential_duplicate>  (636) 
False

>  <uo_units>  (636) 
UO_0000065

>  <canonical_smiles>  (636) 
Cc1nn(C)c2nnc(Nc3ccc(cc3)S(=O)(=O)NCC(O)CO)nc12

>  <parent_molecule_chembl_id>  (636) 
CHEMBL3237858

>  <assay_type>  (636) 
B

>  <src_id>  (636) 
1

>  <ligand_efficiency>  (636) 
{u'le': u'0.23', u'bei': u'11.36', u'sei': u'2.73', u'lle': u'4.19'}

>  <standard_flag>  (636) 
True

>  <molecule_chembl_id>  (636) 
CHEMBL3237858

>  <target_organism>  (636) 
Homo sapiens

>  <standard_units>  (636) 
nM

>  <record_id>  (636) 
2087300

>  <document_chembl_id>  (636) 
CHEMBL3232722

>  <bao_format>  (636) 
BAO_0000219

>  <data_validity_description>  (636) 
None

>  <activity_id>  (636) 
14585654

>  <standard_type>  (636) 
IC50

>  <target_chembl_id>  (636) 
CHEMBL1862

>  <data_validity_comment>  (636) 
None

>  <published_value>  (636) 
34

>  <document_year>  (636) 
2014

>  <target_pref_name>  (636) 
Tyrosine-protein kinase ABL

>  <assay_chembl_id>  (636) 
CHEMBL3239579

>  <standard_relation>  (636) 
=

>  <assay_description>  (636) 
Inhibition of recombinant Abl kinase (unknown origin) expressed in Sf9 cells using GGEAIYAAPFKK as substrate in presence of [gamma33P]ATP

>  <published_relation>  (636) 
=

>  <standard_value>  (636) 
34000

>  <qudt_units>  (636) 
http://www.openphacts.org/units/Nanomolar

>  <target_tax_id>  (636) 
9606

>  <bao_label>  (636) 
cell-based format

>  <published_units>  (636) 
uM

>  <pchembl_value>  (636) 
4.47

>  <published_type>  (636) 
IC50

>  <activity_comment>  (636) 
None

$$$$

     RDKit          

 26 30  0  0  0  0  0  0  0  0999 V2000
    0.0000    0.0000    0.0000 C   0  0  0  0  0  0  0  0  0  0  0  0
    0.0000    0.0000    0.0000 O   0  0  0  0  0  0  0  0  0  0  0  0
    0.0000    0.0000    0.0000 C   0  0  0  0  0  0  0  0  0  0  0  0
    0.0000    0.0000    0.0000 C   0  0  0  0  0  0  0  0  0  0  0  0
    0.0000    0.0000    0.0000 C   0  0  0  0  0  0  0  0  0  0  0  0
    0.0000    0.0000    0.0000 N   0  0  0  0  0  0  0  0  0  0  0  0
    0.0000    0.0000    0.0000 C   0  0  0  0  0  0  0  0  0  0  0  0
    0.0000    0.0000    0.0000 N   0  0  0  0  0  0  0  0  0  0  0  0
    0.0000    0.0000    0.0000 C   0  0  0  0  0  0  0  0  0  0  0  0
    0.0000    0.0000    0.0000 N   0  0  0  0  0  0  0  0  0  0  0  0
    0.0000    0.0000    0.0000 C   0  0  0  0  0  0  0  0  0  0  0  0
    0.0000    0.0000    0.0000 C   0  0  0  0  0  0  0  0  0  0  0  0
    0.0000    0.0000    0.0000 C   0  0  0  0  0  0  0  0  0  0  0  0
    0.0000    0.0000    0.0000 C   0  0  0  0  0  0  0  0  0  0  0  0
    0.0000    0.0000    0.0000 C   0  0  0  0  0  0  0  0  0  0  0  0
    0.0000    0.0000    0.0000 C   0  0  0  0  0  0  0  0  0  0  0  0
    0.0000    0.0000    0.0000 C   0  0  0  0  0  0  0  0  0  0  0  0
    0.0000    0.0000    0.0000 C   0  0  0  0  0  0  0  0  0  0  0  0
    0.0000    0.0000    0.0000 C   0  0  0  0  0  0  0  0  0  0  0  0
    0.0000    0.0000    0.0000 C   0  0  0  0  0  0  0  0  0  0  0  0
    0.0000    0.0000    0.0000 C   0  0  0  0  0  0  0  0  0  0  0  0
    0.0000    0.0000    0.0000 C   0  0  0  0  0  0  0  0  0  0  0  0
    0.0000    0.0000    0.0000 C   0  0  0  0  0  0  0  0  0  0  0  0
    0.0000    0.0000    0.0000 C   0  0  0  0  0  0  0  0  0  0  0  0
    0.0000    0.0000    0.0000 C   0  0  0  0  0  0  0  0  0  0  0  0
    0.0000    0.0000    0.0000 O   0  0  0  0  0  0  0  0  0  0  0  0
  1  2  1  0
  2  3  1  0
  3  4  2  0
  4  5  1  0
  5  6  2  0
  6  7  1  0
  7  8  2  0
  8  9  1  0
  9 10  1  0
 10 11  1  0
 11 12  2  0
 12 13  1  0
 13 14  2  0
 14 15  1  0
 15 16  2  0
 15 17  1  0
 17 18  2  0
 18 19  1  0
 19 20  2  0
 20 21  1  0
 21 22  2  0
  9 23  2  0
 23 24  1  0
 24 25  2  0
 25 26  1  0
 26  1  1  0
 25  3  1  0
 23  5  1  0
 16 11  1  0
 22 17  1  0
M  END
>  <pIC50>  (637) 
7.29

>  <ChEMBL_ID>  (637) 
CHEMBL3040861

>  <document_journal>  (637) 
J. Med. Chem.

>  <bao_endpoint>  (637) 
BAO_0000190

>  <potential_duplicate>  (637) 
False

>  <uo_units>  (637) 
UO_0000065

>  <canonical_smiles>  (637) 
C1Oc2cc3ncnc(Nc4cccc(c4)c5ccccc5)c3cc2O1

>  <parent_molecule_chembl_id>  (637) 
CHEMBL3040861

>  <assay_type>  (637) 
B

>  <src_id>  (637) 
1

>  <ligand_efficiency>  (637) 
{u'le': u'0.38', u'bei': u'21.36', u'sei': u'12.96', u'lle': u'2.53'}

>  <standard_flag>  (637) 
True

>  <molecule_chembl_id>  (637) 
CHEMBL3040861

>  <target_organism>  (637) 
Homo sapiens

>  <standard_units>  (637) 
nM

>  <record_id>  (637) 
2119976

>  <document_chembl_id>  (637) 
CHEMBL3297684

>  <bao_format>  (637) 
BAO_0000357

>  <data_validity_description>  (637) 
None

>  <activity_id>  (637) 
14753646

>  <standard_type>  (637) 
IC50

>  <target_chembl_id>  (637) 
CHEMBL1862

>  <data_validity_comment>  (637) 
None

>  <published_value>  (637) 
0.051

>  <document_year>  (637) 
2014

>  <target_pref_name>  (637) 
Tyrosine-protein kinase ABL

>  <assay_chembl_id>  (637) 
CHEMBL3300696

>  <standard_relation>  (637) 
=

>  <assay_description>  (637) 
Inhibition of Abl1 (unknown origin) assessed as incorporation of [32P] gamma-ATP in to myelin basic protein after 30 mins by autoradiographic analysis

>  <published_relation>  (637) 
=

>  <standard_value>  (637) 
51

>  <qudt_units>  (637) 
http://www.openphacts.org/units/Nanomolar

>  <target_tax_id>  (637) 
9606

>  <bao_label>  (637) 
single protein format

>  <published_units>  (637) 
uM

>  <pchembl_value>  (637) 
7.29

>  <published_type>  (637) 
IC50

>  <activity_comment>  (637) 
None

$$$$

     RDKit          

 27 31  0  0  0  0  0  0  0  0999 V2000
    0.0000    0.0000    0.0000 C   0  0  0  0  0  0  0  0  0  0  0  0
    0.0000    0.0000    0.0000 C   0  0  0  0  0  0  0  0  0  0  0  0
    0.0000    0.0000    0.0000 O   0  0  0  0  0  0  0  0  0  0  0  0
    0.0000    0.0000    0.0000 C   0  0  0  0  0  0  0  0  0  0  0  0
    0.0000    0.0000    0.0000 C   0  0  0  0  0  0  0  0  0  0  0  0
    0.0000    0.0000    0.0000 C   0  0  0  0  0  0  0  0  0  0  0  0
    0.0000    0.0000    0.0000 C   0  0  0  0  0  0  0  0  0  0  0  0
    0.0000    0.0000    0.0000 N   0  0  0  0  0  0  0  0  0  0  0  0
    0.0000    0.0000    0.0000 C   0  0  0  0  0  0  0  0  0  0  0  0
    0.0000    0.0000    0.0000 C   0  0  0  0  0  0  0  0  0  0  0  0
    0.0000    0.0000    0.0000 C   0  0  0  0  0  0  0  0  0  0  0  0
    0.0000    0.0000    0.0000 C   0  0  0  0  0  0  0  0  0  0  0  0
    0.0000    0.0000    0.0000 C   0  0  0  0  0  0  0  0  0  0  0  0
    0.0000    0.0000    0.0000 C   0  0  0  0  0  0  0  0  0  0  0  0
    0.0000    0.0000    0.0000 C   0  0  0  0  0  0  0  0  0  0  0  0
    0.0000    0.0000    0.0000 C   0  0  0  0  0  0  0  0  0  0  0  0
    0.0000    0.0000    0.0000 C   0  0  0  0  0  0  0  0  0  0  0  0
    0.0000    0.0000    0.0000 C   0  0  0  0  0  0  0  0  0  0  0  0
    0.0000    0.0000    0.0000 C   0  0  0  0  0  0  0  0  0  0  0  0
    0.0000    0.0000    0.0000 C   0  0  0  0  0  0  0  0  0  0  0  0
    0.0000    0.0000    0.0000 N   0  0  0  0  0  0  0  0  0  0  0  0
    0.0000    0.0000    0.0000 C   0  0  0  0  0  0  0  0  0  0  0  0
    0.0000    0.0000    0.0000 N   0  0  0  0  0  0  0  0  0  0  0  0
    0.0000    0.0000    0.0000 C   0  0  0  0  0  0  0  0  0  0  0  0
    0.0000    0.0000    0.0000 C   0  0  0  0  0  0  0  0  0  0  0  0
    0.0000    0.0000    0.0000 C   0  0  0  0  0  0  0  0  0  0  0  0
    0.0000    0.0000    0.0000 O   0  0  0  0  0  0  0  0  0  0  0  0
  1  2  1  0
  2  3  1  0
  3  4  1  0
  4  5  2  0
  5  6  1  0
  6  7  2  0
  7  8  1  0
  8  9  1  0
  9 10  2  0
 10 11  1  0
 11 12  2  0
 12 13  1  0
 13 14  2  0
 13 15  1  0
 15 16  2  0
 16 17  1  0
 17 18  2  0
 18 19  1  0
 19 20  2  0
  7 21  1  0
 21 22  2  0
 22 23  1  0
 23 24  2  0
 24 25  1  0
 25 26  2  0
 26 27  1  0
 27  1  1  0
 26  4  1  0
 24  6  1  0
 14  9  1  0
 20 15  1  0
M  END
>  <pIC50>  (638) 
7.62

>  <ChEMBL_ID>  (638) 
CHEMBL3040806

>  <document_journal>  (638) 
J. Med. Chem.

>  <bao_endpoint>  (638) 
BAO_0000190

>  <potential_duplicate>  (638) 
False

>  <uo_units>  (638) 
UO_0000065

>  <canonical_smiles>  (638) 
C1COc2cc3c(Nc4cccc(c4)c5ccccc5)ncnc3cc2O1

>  <parent_molecule_chembl_id>  (638) 
CHEMBL3040806

>  <assay_type>  (638) 
B

>  <src_id>  (638) 
1

>  <ligand_efficiency>  (638) 
{u'le': u'0.39', u'bei': u'21.44', u'sei': u'13.54', u'lle': u'2.84'}

>  <standard_flag>  (638) 
True

>  <molecule_chembl_id>  (638) 
CHEMBL3040806

>  <target_organism>  (638) 
Homo sapiens

>  <standard_units>  (638) 
nM

>  <record_id>  (638) 
2119977

>  <document_chembl_id>  (638) 
CHEMBL3297684

>  <bao_format>  (638) 
BAO_0000357

>  <data_validity_description>  (638) 
None

>  <activity_id>  (638) 
14753647

>  <standard_type>  (638) 
IC50

>  <target_chembl_id>  (638) 
CHEMBL1862

>  <data_validity_comment>  (638) 
None

>  <published_value>  (638) 
0.024

>  <document_year>  (638) 
2014

>  <target_pref_name>  (638) 
Tyrosine-protein kinase ABL

>  <assay_chembl_id>  (638) 
CHEMBL3300696

>  <standard_relation>  (638) 
=

>  <assay_description>  (638) 
Inhibition of Abl1 (unknown origin) assessed as incorporation of [32P] gamma-ATP in to myelin basic protein after 30 mins by autoradiographic analysis

>  <published_relation>  (638) 
=

>  <standard_value>  (638) 
24

>  <qudt_units>  (638) 
http://www.openphacts.org/units/Nanomolar

>  <target_tax_id>  (638) 
9606

>  <bao_label>  (638) 
single protein format

>  <published_units>  (638) 
uM

>  <pchembl_value>  (638) 
7.62

>  <published_type>  (638) 
IC50

>  <activity_comment>  (638) 
None

$$$$

     RDKit          

 28 32  0  0  0  0  0  0  0  0999 V2000
    0.0000    0.0000    0.0000 C   0  0  0  0  0  0  0  0  0  0  0  0
    0.0000    0.0000    0.0000 C   0  0  0  0  0  0  0  0  0  0  0  0
    0.0000    0.0000    0.0000 O   0  0  0  0  0  0  0  0  0  0  0  0
    0.0000    0.0000    0.0000 C   0  0  0  0  0  0  0  0  0  0  0  0
    0.0000    0.0000    0.0000 C   0  0  0  0  0  0  0  0  0  0  0  0
    0.0000    0.0000    0.0000 C   0  0  0  0  0  0  0  0  0  0  0  0
    0.0000    0.0000    0.0000 N   0  0  0  0  0  0  0  0  0  0  0  0
    0.0000    0.0000    0.0000 C   0  0  0  0  0  0  0  0  0  0  0  0
    0.0000    0.0000    0.0000 N   0  0  0  0  0  0  0  0  0  0  0  0
    0.0000    0.0000    0.0000 C   0  0  0  0  0  0  0  0  0  0  0  0
    0.0000    0.0000    0.0000 N   0  0  0  0  0  0  0  0  0  0  0  0
    0.0000    0.0000    0.0000 C   0  0  0  0  0  0  0  0  0  0  0  0
    0.0000    0.0000    0.0000 C   0  0  0  0  0  0  0  0  0  0  0  0
    0.0000    0.0000    0.0000 C   0  0  0  0  0  0  0  0  0  0  0  0
    0.0000    0.0000    0.0000 C   0  0  0  0  0  0  0  0  0  0  0  0
    0.0000    0.0000    0.0000 C   0  0  0  0  0  0  0  0  0  0  0  0
    0.0000    0.0000    0.0000 C   0  0  0  0  0  0  0  0  0  0  0  0
    0.0000    0.0000    0.0000 C   0  0  0  0  0  0  0  0  0  0  0  0
    0.0000    0.0000    0.0000 C   0  0  0  0  0  0  0  0  0  0  0  0
    0.0000    0.0000    0.0000 C   0  0  0  0  0  0  0  0  0  0  0  0
    0.0000    0.0000    0.0000 C   0  0  0  0  0  0  0  0  0  0  0  0
    0.0000    0.0000    0.0000 C   0  0  0  0  0  0  0  0  0  0  0  0
    0.0000    0.0000    0.0000 C   0  0  0  0  0  0  0  0  0  0  0  0
    0.0000    0.0000    0.0000 C   0  0  0  0  0  0  0  0  0  0  0  0
    0.0000    0.0000    0.0000 C   0  0  0  0  0  0  0  0  0  0  0  0
    0.0000    0.0000    0.0000 C   0  0  0  0  0  0  0  0  0  0  0  0
    0.0000    0.0000    0.0000 O   0  0  0  0  0  0  0  0  0  0  0  0
    0.0000    0.0000    0.0000 C   0  0  0  0  0  0  0  0  0  0  0  0
  1  2  1  0
  2  3  1  0
  3  4  1  0
  4  5  2  0
  5  6  1  0
  6  7  2  0
  7  8  1  0
  8  9  2  0
  9 10  1  0
 10 11  1  0
 11 12  1  0
 12 13  2  0
 13 14  1  0
 14 15  2  0
 15 16  1  0
 16 17  2  0
 16 18  1  0
 18 19  2  0
 19 20  1  0
 20 21  2  0
 21 22  1  0
 22 23  2  0
 10 24  2  0
 24 25  1  0
 25 26  2  0
 26 27  1  0
 27 28  1  0
 28  1  1  0
 26  4  1  0
 24  6  1  0
 17 12  1  0
 23 18  1  0
M  END
>  <pIC50>  (639) 
7.25

>  <ChEMBL_ID>  (639) 
CHEMBL3040910

>  <document_journal>  (639) 
J. Med. Chem.

>  <bao_endpoint>  (639) 
BAO_0000190

>  <potential_duplicate>  (639) 
False

>  <uo_units>  (639) 
UO_0000065

>  <canonical_smiles>  (639) 
C1COc2cc3ncnc(Nc4cccc(c4)c5ccccc5)c3cc2OC1

>  <parent_molecule_chembl_id>  (639) 
CHEMBL3040910

>  <assay_type>  (639) 
B

>  <src_id>  (639) 
1

>  <ligand_efficiency>  (639) 
{u'le': u'0.35', u'bei': u'19.63', u'sei': u'12.89', u'lle': u'2.41'}

>  <standard_flag>  (639) 
True

>  <molecule_chembl_id>  (639) 
CHEMBL3040910

>  <target_organism>  (639) 
Homo sapiens

>  <standard_units>  (639) 
nM

>  <record_id>  (639) 
2119978

>  <document_chembl_id>  (639) 
CHEMBL3297684

>  <bao_format>  (639) 
BAO_0000357

>  <data_validity_description>  (639) 
None

>  <activity_id>  (639) 
14753648

>  <standard_type>  (639) 
IC50

>  <target_chembl_id>  (639) 
CHEMBL1862

>  <data_validity_comment>  (639) 
None

>  <published_value>  (639) 
0.056

>  <document_year>  (639) 
2014

>  <target_pref_name>  (639) 
Tyrosine-protein kinase ABL

>  <assay_chembl_id>  (639) 
CHEMBL3300696

>  <standard_relation>  (639) 
=

>  <assay_description>  (639) 
Inhibition of Abl1 (unknown origin) assessed as incorporation of [32P] gamma-ATP in to myelin basic protein after 30 mins by autoradiographic analysis

>  <published_relation>  (639) 
=

>  <standard_value>  (639) 
56

>  <qudt_units>  (639) 
http://www.openphacts.org/units/Nanomolar

>  <target_tax_id>  (639) 
9606

>  <bao_label>  (639) 
single protein format

>  <published_units>  (639) 
uM

>  <pchembl_value>  (639) 
7.25

>  <published_type>  (639) 
IC50

>  <activity_comment>  (639) 
None

$$$$

     RDKit          

 25 28  0  0  0  0  0  0  0  0999 V2000
    0.0000    0.0000    0.0000 C   0  0  0  0  0  0  0  0  0  0  0  0
    0.0000    0.0000    0.0000 O   0  0  0  0  0  0  0  0  0  0  0  0
    0.0000    0.0000    0.0000 C   0  0  0  0  0  0  0  0  0  0  0  0
    0.0000    0.0000    0.0000 O   0  0  0  0  0  0  0  0  0  0  0  0
    0.0000    0.0000    0.0000 C   0  0  0  0  0  0  0  0  0  0  0  0
    0.0000    0.0000    0.0000 C   0  0  0  0  0  0  0  0  0  0  0  0
    0.0000    0.0000    0.0000 C   0  0  0  0  0  0  0  0  0  0  0  0
    0.0000    0.0000    0.0000 C   0  0  0  0  0  0  0  0  0  0  0  0
    0.0000    0.0000    0.0000 C   0  0  0  0  0  0  0  0  0  0  0  0
    0.0000    0.0000    0.0000 N   0  0  0  0  0  0  0  0  0  0  0  0
    0.0000    0.0000    0.0000 C   0  0  0  0  0  0  0  0  0  0  0  0
    0.0000    0.0000    0.0000 O   0  0  0  0  0  0  0  0  0  0  0  0
    0.0000    0.0000    0.0000 C   0  0  0  0  0  0  0  0  0  0  0  0
    0.0000    0.0000    0.0000 C   0  0  0  0  0  0  0  0  0  0  0  0
    0.0000    0.0000    0.0000 C   0  0  0  0  0  0  0  0  0  0  0  0
    0.0000    0.0000    0.0000 C   0  0  0  0  0  0  0  0  0  0  0  0
    0.0000    0.0000    0.0000 N   0  0  0  0  0  0  0  0  0  0  0  0
    0.0000    0.0000    0.0000 C   0  0  0  0  0  0  0  0  0  0  0  0
    0.0000    0.0000    0.0000 C   0  0  0  0  0  0  0  0  0  0  0  0
    0.0000    0.0000    0.0000 C   0  0  0  0  0  0  0  0  0  0  0  0
    0.0000    0.0000    0.0000 C   0  0  0  0  0  0  0  0  0  0  0  0
    0.0000    0.0000    0.0000 C   0  0  0  0  0  0  0  0  0  0  0  0
    0.0000    0.0000    0.0000 N   0  0  0  0  0  0  0  0  0  0  0  0
    0.0000    0.0000    0.0000 C   0  0  0  0  0  0  0  0  0  0  0  0
    0.0000    0.0000    0.0000 N   0  0  0  0  0  0  0  0  0  0  0  0
  1  2  1  0
  2  3  1  0
  3  4  2  0
  3  5  1  0
  5  6  2  0
  6  7  1  0
  7  8  2  0
  8  9  1  0
  9 10  1  0
 10 11  1  0
 11 12  2  0
 11 13  1  0
 13 14  2  0
 14 15  1  0
 15 16  2  0
 16 17  1  0
 17 18  1  0
 18 19  2  0
 19 20  1  0
 20 21  2  0
  9 22  2  0
 22 23  1  0
 23 24  2  0
 24 25  1  0
 25  5  1  0
 24  7  1  0
 21 13  1  0
 20 16  1  0
M  END
>  <pIC50>  (640) 
5.49

>  <ChEMBL_ID>  (640) 
CHEMBL3347277

>  <document_journal>  (640) 
MedChemComm

>  <bao_endpoint>  (640) 
BAO_0000190

>  <potential_duplicate>  (640) 
False

>  <uo_units>  (640) 
UO_0000065

>  <canonical_smiles>  (640) 
COC(=O)c1cc2cc(NC(=O)c3ccc4[nH]ccc4c3)cnc2[nH]1

>  <parent_molecule_chembl_id>  (640) 
CHEMBL3347277

>  <assay_type>  (640) 
B

>  <src_id>  (640) 
1

>  <ligand_efficiency>  (640) 
{u'le': u'0.3', u'bei': u'16.43', u'sei': u'5.5', u'lle': u'3.09'}

>  <standard_flag>  (640) 
True

>  <molecule_chembl_id>  (640) 
CHEMBL3347277

>  <target_organism>  (640) 
Homo sapiens

>  <standard_units>  (640) 
nM

>  <record_id>  (640) 
2173324

>  <document_chembl_id>  (640) 
CHEMBL3390833

>  <bao_format>  (640) 
BAO_0000357

>  <data_validity_description>  (640) 
None

>  <activity_id>  (640) 
14927822

>  <standard_type>  (640) 
IC50

>  <target_chembl_id>  (640) 
CHEMBL1862

>  <data_validity_comment>  (640) 
None

>  <published_value>  (640) 
3206

>  <document_year>  (640) 
2012

>  <target_pref_name>  (640) 
Tyrosine-protein kinase ABL

>  <assay_chembl_id>  (640) 
CHEMBL3391136

>  <standard_relation>  (640) 
=

>  <assay_description>  (640) 
Inhibition of Abl kinase (unknown origin)

>  <published_relation>  (640) 
=

>  <standard_value>  (640) 
3206

>  <qudt_units>  (640) 
http://www.openphacts.org/units/Nanomolar

>  <target_tax_id>  (640) 
9606

>  <bao_label>  (640) 
single protein format

>  <published_units>  (640) 
nM

>  <pchembl_value>  (640) 
5.49

>  <published_type>  (640) 
IC50

>  <activity_comment>  (640) 
None

$$$$

     RDKit          

 24 27  0  0  0  0  0  0  0  0999 V2000
    0.0000    0.0000    0.0000 C   0  0  0  0  0  0  0  0  0  0  0  0
    0.0000    0.0000    0.0000 O   0  0  0  0  0  0  0  0  0  0  0  0
    0.0000    0.0000    0.0000 C   0  0  0  0  0  0  0  0  0  0  0  0
    0.0000    0.0000    0.0000 O   0  0  0  0  0  0  0  0  0  0  0  0
    0.0000    0.0000    0.0000 C   0  0  0  0  0  0  0  0  0  0  0  0
    0.0000    0.0000    0.0000 C   0  0  0  0  0  0  0  0  0  0  0  0
    0.0000    0.0000    0.0000 C   0  0  0  0  0  0  0  0  0  0  0  0
    0.0000    0.0000    0.0000 C   0  0  0  0  0  0  0  0  0  0  0  0
    0.0000    0.0000    0.0000 C   0  0  0  0  0  0  0  0  0  0  0  0
    0.0000    0.0000    0.0000 N   0  0  0  0  0  0  0  0  0  0  0  0
    0.0000    0.0000    0.0000 C   0  0  0  0  0  0  0  0  0  0  0  0
    0.0000    0.0000    0.0000 C   0  0  0  0  0  0  0  0  0  0  0  0
    0.0000    0.0000    0.0000 C   0  0  0  0  0  0  0  0  0  0  0  0
    0.0000    0.0000    0.0000 N   0  0  0  0  0  0  0  0  0  0  0  0
    0.0000    0.0000    0.0000 C   0  0  0  0  0  0  0  0  0  0  0  0
    0.0000    0.0000    0.0000 N   0  0  0  0  0  0  0  0  0  0  0  0
    0.0000    0.0000    0.0000 C   0  0  0  0  0  0  0  0  0  0  0  0
    0.0000    0.0000    0.0000 C   0  0  0  0  0  0  0  0  0  0  0  0
    0.0000    0.0000    0.0000 C   0  0  0  0  0  0  0  0  0  0  0  0
    0.0000    0.0000    0.0000 C   0  0  0  0  0  0  0  0  0  0  0  0
    0.0000    0.0000    0.0000 C   0  0  0  0  0  0  0  0  0  0  0  0
    0.0000    0.0000    0.0000 N   0  0  0  0  0  0  0  0  0  0  0  0
    0.0000    0.0000    0.0000 C   0  0  0  0  0  0  0  0  0  0  0  0
    0.0000    0.0000    0.0000 N   0  0  0  0  0  0  0  0  0  0  0  0
  1  2  1  0
  2  3  1  0
  3  4  2  0
  3  5  1  0
  5  6  2  0
  6  7  1  0
  7  8  2  0
  8  9  1  0
  9 10  1  0
 10 11  1  0
 11 12  1  0
 12 13  2  0
 13 14  1  0
 14 15  2  0
 15 16  1  0
 16 17  1  0
 17 18  2  0
 18 19  1  0
 19 20  2  0
  9 21  2  0
 21 22  1  0
 22 23  2  0
 23 24  1  0
 24  5  1  0
 23  7  1  0
 20 12  1  0
 19 15  1  0
M  END
>  <pIC50>  (641) 
6.87

>  <ChEMBL_ID>  (641) 
CHEMBL3347426

>  <document_journal>  (641) 
MedChemComm

>  <bao_endpoint>  (641) 
BAO_0000190

>  <potential_duplicate>  (641) 
False

>  <uo_units>  (641) 
UO_0000065

>  <canonical_smiles>  (641) 
COC(=O)c1cc2cc(NCc3cnc4[nH]ccc4c3)cnc2[nH]1

>  <parent_molecule_chembl_id>  (641) 
CHEMBL3347426

>  <assay_type>  (641) 
B

>  <src_id>  (641) 
1

>  <ligand_efficiency>  (641) 
{u'le': u'0.39', u'bei': u'21.37', u'sei': u'7.18', u'lle': u'4.82'}

>  <standard_flag>  (641) 
True

>  <molecule_chembl_id>  (641) 
CHEMBL3347426

>  <target_organism>  (641) 
Homo sapiens

>  <standard_units>  (641) 
nM

>  <record_id>  (641) 
2173269

>  <document_chembl_id>  (641) 
CHEMBL3390833

>  <bao_format>  (641) 
BAO_0000357

>  <data_validity_description>  (641) 
None

>  <activity_id>  (641) 
14927823

>  <standard_type>  (641) 
IC50

>  <target_chembl_id>  (641) 
CHEMBL1862

>  <data_validity_comment>  (641) 
None

>  <published_value>  (641) 
136

>  <document_year>  (641) 
2012

>  <target_pref_name>  (641) 
Tyrosine-protein kinase ABL

>  <assay_chembl_id>  (641) 
CHEMBL3391136

>  <standard_relation>  (641) 
=

>  <assay_description>  (641) 
Inhibition of Abl kinase (unknown origin)

>  <published_relation>  (641) 
=

>  <standard_value>  (641) 
136

>  <qudt_units>  (641) 
http://www.openphacts.org/units/Nanomolar

>  <target_tax_id>  (641) 
9606

>  <bao_label>  (641) 
single protein format

>  <published_units>  (641) 
nM

>  <pchembl_value>  (641) 
6.87

>  <published_type>  (641) 
IC50

>  <activity_comment>  (641) 
None

$$$$

     RDKit          

 25 28  0  0  0  0  0  0  0  0999 V2000
    0.0000    0.0000    0.0000 C   0  0  0  0  0  0  0  0  0  0  0  0
    0.0000    0.0000    0.0000 O   0  0  0  0  0  0  0  0  0  0  0  0
    0.0000    0.0000    0.0000 C   0  0  0  0  0  0  0  0  0  0  0  0
    0.0000    0.0000    0.0000 O   0  0  0  0  0  0  0  0  0  0  0  0
    0.0000    0.0000    0.0000 C   0  0  0  0  0  0  0  0  0  0  0  0
    0.0000    0.0000    0.0000 C   0  0  0  0  0  0  0  0  0  0  0  0
    0.0000    0.0000    0.0000 C   0  0  0  0  0  0  0  0  0  0  0  0
    0.0000    0.0000    0.0000 C   0  0  0  0  0  0  0  0  0  0  0  0
    0.0000    0.0000    0.0000 C   0  0  0  0  0  0  0  0  0  0  0  0
    0.0000    0.0000    0.0000 N   0  0  0  0  0  0  0  0  0  0  0  0
    0.0000    0.0000    0.0000 C   0  0  0  0  0  0  0  0  0  0  0  0
    0.0000    0.0000    0.0000 C   0  0  0  0  0  0  0  0  0  0  0  0
    0.0000    0.0000    0.0000 C   0  0  0  0  0  0  0  0  0  0  0  0
    0.0000    0.0000    0.0000 C   0  0  0  0  0  0  0  0  0  0  0  0
    0.0000    0.0000    0.0000 N   0  0  0  0  0  0  0  0  0  0  0  0
    0.0000    0.0000    0.0000 C   0  0  0  0  0  0  0  0  0  0  0  0
    0.0000    0.0000    0.0000 N   0  0  0  0  0  0  0  0  0  0  0  0
    0.0000    0.0000    0.0000 C   0  0  0  0  0  0  0  0  0  0  0  0
    0.0000    0.0000    0.0000 C   0  0  0  0  0  0  0  0  0  0  0  0
    0.0000    0.0000    0.0000 C   0  0  0  0  0  0  0  0  0  0  0  0
    0.0000    0.0000    0.0000 C   0  0  0  0  0  0  0  0  0  0  0  0
    0.0000    0.0000    0.0000 C   0  0  0  0  0  0  0  0  0  0  0  0
    0.0000    0.0000    0.0000 N   0  0  0  0  0  0  0  0  0  0  0  0
    0.0000    0.0000    0.0000 C   0  0  0  0  0  0  0  0  0  0  0  0
    0.0000    0.0000    0.0000 N   0  0  0  0  0  0  0  0  0  0  0  0
  1  2  1  0
  2  3  1  0
  3  4  2  0
  3  5  1  0
  5  6  2  0
  6  7  1  0
  7  8  2  0
  8  9  1  0
  9 10  1  0
 10 11  1  0
 11 12  1  0
 12 13  2  0
 13 14  1  0
 14 15  1  0
 15 16  2  0
 16 17  1  0
 17 18  1  0
 18 19  1  0
 19 20  2  0
 20 21  1  0
  9 22  2  0
 22 23  1  0
 23 24  2  0
 24 25  1  0
 25  5  1  0
 24  7  1  0
 20 12  1  0
 18 14  2  0
M  END
>  <pIC50>  (642) 
6.78

>  <ChEMBL_ID>  (642) 
CHEMBL3347425

>  <document_journal>  (642) 
MedChemComm

>  <bao_endpoint>  (642) 
BAO_0000190

>  <potential_duplicate>  (642) 
False

>  <uo_units>  (642) 
UO_0000065

>  <canonical_smiles>  (642) 
COC(=O)c1cc2cc(NCc3cc4nc[nH]c4cc3C)cnc2[nH]1

>  <parent_molecule_chembl_id>  (642) 
CHEMBL3347425

>  <assay_type>  (642) 
B

>  <src_id>  (642) 
1

>  <ligand_efficiency>  (642) 
{u'le': u'0.37', u'bei': u'20.22', u'sei': u'7.09', u'lle': u'4.07'}

>  <standard_flag>  (642) 
True

>  <molecule_chembl_id>  (642) 
CHEMBL3347425

>  <target_organism>  (642) 
Homo sapiens

>  <standard_units>  (642) 
nM

>  <record_id>  (642) 
2173268

>  <document_chembl_id>  (642) 
CHEMBL3390833

>  <bao_format>  (642) 
BAO_0000357

>  <data_validity_description>  (642) 
None

>  <activity_id>  (642) 
14927824

>  <standard_type>  (642) 
IC50

>  <target_chembl_id>  (642) 
CHEMBL1862

>  <data_validity_comment>  (642) 
None

>  <published_value>  (642) 
165

>  <document_year>  (642) 
2012

>  <target_pref_name>  (642) 
Tyrosine-protein kinase ABL

>  <assay_chembl_id>  (642) 
CHEMBL3391136

>  <standard_relation>  (642) 
=

>  <assay_description>  (642) 
Inhibition of Abl kinase (unknown origin)

>  <published_relation>  (642) 
=

>  <standard_value>  (642) 
165

>  <qudt_units>  (642) 
http://www.openphacts.org/units/Nanomolar

>  <target_tax_id>  (642) 
9606

>  <bao_label>  (642) 
single protein format

>  <published_units>  (642) 
nM

>  <pchembl_value>  (642) 
6.78

>  <published_type>  (642) 
IC50

>  <activity_comment>  (642) 
None

$$$$

     RDKit          

 24 27  0  0  0  0  0  0  0  0999 V2000
    0.0000    0.0000    0.0000 C   0  0  0  0  0  0  0  0  0  0  0  0
    0.0000    0.0000    0.0000 O   0  0  0  0  0  0  0  0  0  0  0  0
    0.0000    0.0000    0.0000 C   0  0  0  0  0  0  0  0  0  0  0  0
    0.0000    0.0000    0.0000 O   0  0  0  0  0  0  0  0  0  0  0  0
    0.0000    0.0000    0.0000 C   0  0  0  0  0  0  0  0  0  0  0  0
    0.0000    0.0000    0.0000 C   0  0  0  0  0  0  0  0  0  0  0  0
    0.0000    0.0000    0.0000 C   0  0  0  0  0  0  0  0  0  0  0  0
    0.0000    0.0000    0.0000 C   0  0  0  0  0  0  0  0  0  0  0  0
    0.0000    0.0000    0.0000 C   0  0  0  0  0  0  0  0  0  0  0  0
    0.0000    0.0000    0.0000 N   0  0  0  0  0  0  0  0  0  0  0  0
    0.0000    0.0000    0.0000 C   0  0  0  0  0  0  0  0  0  0  0  0
    0.0000    0.0000    0.0000 C   0  0  0  0  0  0  0  0  0  0  0  0
    0.0000    0.0000    0.0000 C   0  0  0  0  0  0  0  0  0  0  0  0
    0.0000    0.0000    0.0000 C   0  0  0  0  0  0  0  0  0  0  0  0
    0.0000    0.0000    0.0000 C   0  0  0  0  0  0  0  0  0  0  0  0
    0.0000    0.0000    0.0000 N   0  0  0  0  0  0  0  0  0  0  0  0
    0.0000    0.0000    0.0000 C   0  0  0  0  0  0  0  0  0  0  0  0
    0.0000    0.0000    0.0000 N   0  0  0  0  0  0  0  0  0  0  0  0
    0.0000    0.0000    0.0000 C   0  0  0  0  0  0  0  0  0  0  0  0
    0.0000    0.0000    0.0000 C   0  0  0  0  0  0  0  0  0  0  0  0
    0.0000    0.0000    0.0000 C   0  0  0  0  0  0  0  0  0  0  0  0
    0.0000    0.0000    0.0000 N   0  0  0  0  0  0  0  0  0  0  0  0
    0.0000    0.0000    0.0000 C   0  0  0  0  0  0  0  0  0  0  0  0
    0.0000    0.0000    0.0000 N   0  0  0  0  0  0  0  0  0  0  0  0
  1  2  1  0
  2  3  1  0
  3  4  2  0
  3  5  1  0
  5  6  2  0
  6  7  1  0
  7  8  2  0
  8  9  1  0
  9 10  1  0
 10 11  1  0
 11 12  1  0
 12 13  2  0
 13 14  1  0
 14 15  2  0
 15 16  1  0
 16 17  1  0
 17 18  2  0
 18 19  1  0
 19 20  2  0
  9 21  2  0
 21 22  1  0
 22 23  2  0
 23 24  1  0
 24  5  1  0
 23  7  1  0
 20 12  1  0
 19 15  1  0
M  END
>  <pIC50>  (643) 
6.34

>  <ChEMBL_ID>  (643) 
CHEMBL3347424

>  <document_journal>  (643) 
MedChemComm

>  <bao_endpoint>  (643) 
BAO_0000190

>  <potential_duplicate>  (643) 
False

>  <uo_units>  (643) 
UO_0000065

>  <canonical_smiles>  (643) 
COC(=O)c1cc2cc(NCc3ccc4[nH]cnc4c3)cnc2[nH]1

>  <parent_molecule_chembl_id>  (643) 
CHEMBL3347424

>  <assay_type>  (643) 
B

>  <src_id>  (643) 
1

>  <ligand_efficiency>  (643) 
{u'le': u'0.36', u'bei': u'19.73', u'sei': u'6.63', u'lle': u'4.11'}

>  <standard_flag>  (643) 
True

>  <molecule_chembl_id>  (643) 
CHEMBL3347424

>  <target_organism>  (643) 
Homo sapiens

>  <standard_units>  (643) 
nM

>  <record_id>  (643) 
2173267

>  <document_chembl_id>  (643) 
CHEMBL3390833

>  <bao_format>  (643) 
BAO_0000357

>  <data_validity_description>  (643) 
None

>  <activity_id>  (643) 
14927825

>  <standard_type>  (643) 
IC50

>  <target_chembl_id>  (643) 
CHEMBL1862

>  <data_validity_comment>  (643) 
None

>  <published_value>  (643) 
457

>  <document_year>  (643) 
2012

>  <target_pref_name>  (643) 
Tyrosine-protein kinase ABL

>  <assay_chembl_id>  (643) 
CHEMBL3391136

>  <standard_relation>  (643) 
=

>  <assay_description>  (643) 
Inhibition of Abl kinase (unknown origin)

>  <published_relation>  (643) 
=

>  <standard_value>  (643) 
457

>  <qudt_units>  (643) 
http://www.openphacts.org/units/Nanomolar

>  <target_tax_id>  (643) 
9606

>  <bao_label>  (643) 
single protein format

>  <published_units>  (643) 
nM

>  <pchembl_value>  (643) 
6.34

>  <published_type>  (643) 
IC50

>  <activity_comment>  (643) 
None

$$$$

     RDKit          

 24 27  0  0  0  0  0  0  0  0999 V2000
    0.0000    0.0000    0.0000 C   0  0  0  0  0  0  0  0  0  0  0  0
    0.0000    0.0000    0.0000 O   0  0  0  0  0  0  0  0  0  0  0  0
    0.0000    0.0000    0.0000 C   0  0  0  0  0  0  0  0  0  0  0  0
    0.0000    0.0000    0.0000 O   0  0  0  0  0  0  0  0  0  0  0  0
    0.0000    0.0000    0.0000 C   0  0  0  0  0  0  0  0  0  0  0  0
    0.0000    0.0000    0.0000 C   0  0  0  0  0  0  0  0  0  0  0  0
    0.0000    0.0000    0.0000 C   0  0  0  0  0  0  0  0  0  0  0  0
    0.0000    0.0000    0.0000 C   0  0  0  0  0  0  0  0  0  0  0  0
    0.0000    0.0000    0.0000 C   0  0  0  0  0  0  0  0  0  0  0  0
    0.0000    0.0000    0.0000 N   0  0  0  0  0  0  0  0  0  0  0  0
    0.0000    0.0000    0.0000 C   0  0  0  0  0  0  0  0  0  0  0  0
    0.0000    0.0000    0.0000 C   0  0  0  0  0  0  0  0  0  0  0  0
    0.0000    0.0000    0.0000 C   0  0  0  0  0  0  0  0  0  0  0  0
    0.0000    0.0000    0.0000 C   0  0  0  0  0  0  0  0  0  0  0  0
    0.0000    0.0000    0.0000 C   0  0  0  0  0  0  0  0  0  0  0  0
    0.0000    0.0000    0.0000 C   0  0  0  0  0  0  0  0  0  0  0  0
    0.0000    0.0000    0.0000 C   0  0  0  0  0  0  0  0  0  0  0  0
    0.0000    0.0000    0.0000 N   0  0  0  0  0  0  0  0  0  0  0  0
    0.0000    0.0000    0.0000 C   0  0  0  0  0  0  0  0  0  0  0  0
    0.0000    0.0000    0.0000 C   0  0  0  0  0  0  0  0  0  0  0  0
    0.0000    0.0000    0.0000 C   0  0  0  0  0  0  0  0  0  0  0  0
    0.0000    0.0000    0.0000 N   0  0  0  0  0  0  0  0  0  0  0  0
    0.0000    0.0000    0.0000 C   0  0  0  0  0  0  0  0  0  0  0  0
    0.0000    0.0000    0.0000 N   0  0  0  0  0  0  0  0  0  0  0  0
  1  2  1  0
  2  3  1  0
  3  4  2  0
  3  5  1  0
  5  6  2  0
  6  7  1  0
  7  8  2  0
  8  9  1  0
  9 10  1  0
 10 11  1  0
 11 12  1  0
 12 13  2  0
 13 14  1  0
 14 15  2  0
 15 16  1  0
 16 17  2  0
 17 18  1  0
 18 19  1  0
 19 20  2  0
  9 21  2  0
 21 22  1  0
 22 23  2  0
 23 24  1  0
 24  5  1  0
 23  7  1  0
 20 12  1  0
 19 15  1  0
M  END
>  <pIC50>  (644) 
5.98

>  <ChEMBL_ID>  (644) 
CHEMBL3347420

>  <document_journal>  (644) 
MedChemComm

>  <bao_endpoint>  (644) 
BAO_0000190

>  <potential_duplicate>  (644) 
False

>  <uo_units>  (644) 
UO_0000065

>  <canonical_smiles>  (644) 
COC(=O)c1cc2cc(NCc3ccc4cc[nH]c4c3)cnc2[nH]1

>  <parent_molecule_chembl_id>  (644) 
CHEMBL3347420

>  <assay_type>  (644) 
B

>  <src_id>  (644) 
1

>  <ligand_efficiency>  (644) 
{u'le': u'0.34', u'bei': u'18.67', u'sei': u'7.22', u'lle': u'2.98'}

>  <standard_flag>  (644) 
True

>  <molecule_chembl_id>  (644) 
CHEMBL3347420

>  <target_organism>  (644) 
Homo sapiens

>  <standard_units>  (644) 
nM

>  <record_id>  (644) 
2173263

>  <document_chembl_id>  (644) 
CHEMBL3390833

>  <bao_format>  (644) 
BAO_0000357

>  <data_validity_description>  (644) 
None

>  <activity_id>  (644) 
14927826

>  <standard_type>  (644) 
IC50

>  <target_chembl_id>  (644) 
CHEMBL1862

>  <data_validity_comment>  (644) 
None

>  <published_value>  (644) 
1047

>  <document_year>  (644) 
2012

>  <target_pref_name>  (644) 
Tyrosine-protein kinase ABL

>  <assay_chembl_id>  (644) 
CHEMBL3391136

>  <standard_relation>  (644) 
=

>  <assay_description>  (644) 
Inhibition of Abl kinase (unknown origin)

>  <published_relation>  (644) 
=

>  <standard_value>  (644) 
1047

>  <qudt_units>  (644) 
http://www.openphacts.org/units/Nanomolar

>  <target_tax_id>  (644) 
9606

>  <bao_label>  (644) 
single protein format

>  <published_units>  (644) 
nM

>  <pchembl_value>  (644) 
5.98

>  <published_type>  (644) 
IC50

>  <activity_comment>  (644) 
None

$$$$

     RDKit          

 24 27  0  0  0  0  0  0  0  0999 V2000
    0.0000    0.0000    0.0000 C   0  0  0  0  0  0  0  0  0  0  0  0
    0.0000    0.0000    0.0000 O   0  0  0  0  0  0  0  0  0  0  0  0
    0.0000    0.0000    0.0000 C   0  0  0  0  0  0  0  0  0  0  0  0
    0.0000    0.0000    0.0000 O   0  0  0  0  0  0  0  0  0  0  0  0
    0.0000    0.0000    0.0000 C   0  0  0  0  0  0  0  0  0  0  0  0
    0.0000    0.0000    0.0000 C   0  0  0  0  0  0  0  0  0  0  0  0
    0.0000    0.0000    0.0000 C   0  0  0  0  0  0  0  0  0  0  0  0
    0.0000    0.0000    0.0000 C   0  0  0  0  0  0  0  0  0  0  0  0
    0.0000    0.0000    0.0000 C   0  0  0  0  0  0  0  0  0  0  0  0
    0.0000    0.0000    0.0000 N   0  0  0  0  0  0  0  0  0  0  0  0
    0.0000    0.0000    0.0000 C   0  0  0  0  0  0  0  0  0  0  0  0
    0.0000    0.0000    0.0000 C   0  0  0  0  0  0  0  0  0  0  0  0
    0.0000    0.0000    0.0000 C   0  0  0  0  0  0  0  0  0  0  0  0
    0.0000    0.0000    0.0000 C   0  0  0  0  0  0  0  0  0  0  0  0
    0.0000    0.0000    0.0000 C   0  0  0  0  0  0  0  0  0  0  0  0
    0.0000    0.0000    0.0000 N   0  0  0  0  0  0  0  0  0  0  0  0
    0.0000    0.0000    0.0000 C   0  0  0  0  0  0  0  0  0  0  0  0
    0.0000    0.0000    0.0000 C   0  0  0  0  0  0  0  0  0  0  0  0
    0.0000    0.0000    0.0000 C   0  0  0  0  0  0  0  0  0  0  0  0
    0.0000    0.0000    0.0000 C   0  0  0  0  0  0  0  0  0  0  0  0
    0.0000    0.0000    0.0000 C   0  0  0  0  0  0  0  0  0  0  0  0
    0.0000    0.0000    0.0000 N   0  0  0  0  0  0  0  0  0  0  0  0
    0.0000    0.0000    0.0000 C   0  0  0  0  0  0  0  0  0  0  0  0
    0.0000    0.0000    0.0000 N   0  0  0  0  0  0  0  0  0  0  0  0
  1  2  1  0
  2  3  1  0
  3  4  2  0
  3  5  1  0
  5  6  2  0
  6  7  1  0
  7  8  2  0
  8  9  1  0
  9 10  1  0
 10 11  1  0
 11 12  1  0
 12 13  2  0
 13 14  1  0
 14 15  2  0
 15 16  1  0
 16 17  1  0
 17 18  2  0
 18 19  1  0
 19 20  2  0
  9 21  2  0
 21 22  1  0
 22 23  2  0
 23 24  1  0
 24  5  1  0
 23  7  1  0
 20 12  1  0
 19 15  1  0
M  END
>  <pIC50>  (645) 
7.41

>  <ChEMBL_ID>  (645) 
CHEMBL3347419

>  <document_journal>  (645) 
MedChemComm

>  <bao_endpoint>  (645) 
BAO_0000190

>  <potential_duplicate>  (645) 
False

>  <uo_units>  (645) 
UO_0000065

>  <canonical_smiles>  (645) 
COC(=O)c1cc2cc(NCc3ccc4[nH]ccc4c3)cnc2[nH]1

>  <parent_molecule_chembl_id>  (645) 
CHEMBL3347419

>  <assay_type>  (645) 
B

>  <src_id>  (645) 
1

>  <ligand_efficiency>  (645) 
{u'le': u'0.42', u'bei': u'23.13', u'sei': u'8.95', u'lle': u'4.41'}

>  <standard_flag>  (645) 
True

>  <molecule_chembl_id>  (645) 
CHEMBL3347419

>  <target_organism>  (645) 
Homo sapiens

>  <standard_units>  (645) 
nM

>  <record_id>  (645) 
2173262

>  <document_chembl_id>  (645) 
CHEMBL3390833

>  <bao_format>  (645) 
BAO_0000357

>  <data_validity_description>  (645) 
None

>  <activity_id>  (645) 
14927827

>  <standard_type>  (645) 
IC50

>  <target_chembl_id>  (645) 
CHEMBL1862

>  <data_validity_comment>  (645) 
None

>  <published_value>  (645) 
39

>  <document_year>  (645) 
2012

>  <target_pref_name>  (645) 
Tyrosine-protein kinase ABL

>  <assay_chembl_id>  (645) 
CHEMBL3391136

>  <standard_relation>  (645) 
=

>  <assay_description>  (645) 
Inhibition of Abl kinase (unknown origin)

>  <published_relation>  (645) 
=

>  <standard_value>  (645) 
39

>  <qudt_units>  (645) 
http://www.openphacts.org/units/Nanomolar

>  <target_tax_id>  (645) 
9606

>  <bao_label>  (645) 
single protein format

>  <published_units>  (645) 
nM

>  <pchembl_value>  (645) 
7.41

>  <published_type>  (645) 
IC50

>  <activity_comment>  (645) 
None

$$$$

     RDKit          

 22 24  0  0  0  0  0  0  0  0999 V2000
    0.0000    0.0000    0.0000 C   0  0  0  0  0  0  0  0  0  0  0  0
    0.0000    0.0000    0.0000 C   0  0  0  0  0  0  0  0  0  0  0  0
    0.0000    0.0000    0.0000 N   0  0  0  0  0  0  0  0  0  0  0  0
    0.0000    0.0000    0.0000 N   0  0  0  0  0  0  0  0  0  0  0  0
    0.0000    0.0000    0.0000 C   0  0  0  0  0  0  0  0  0  0  0  0
    0.0000    0.0000    0.0000 C   0  0  0  0  0  0  0  0  0  0  0  0
    0.0000    0.0000    0.0000 C   0  0  0  0  0  0  0  0  0  0  0  0
    0.0000    0.0000    0.0000 C   0  0  0  0  0  0  0  0  0  0  0  0
    0.0000    0.0000    0.0000 N   0  0  0  0  0  0  0  0  0  0  0  0
    0.0000    0.0000    0.0000 C   0  0  0  0  0  0  0  0  0  0  0  0
    0.0000    0.0000    0.0000 C   0  0  0  0  0  0  0  0  0  0  0  0
    0.0000    0.0000    0.0000 N   0  0  0  0  0  0  0  0  0  0  0  0
    0.0000    0.0000    0.0000 C   0  0  0  0  0  0  0  0  0  0  0  0
    0.0000    0.0000    0.0000 N   0  0  0  0  0  0  0  0  0  0  0  0
    0.0000    0.0000    0.0000 C   0  0  0  0  0  0  0  0  0  0  0  0
    0.0000    0.0000    0.0000 C   0  0  0  0  0  0  0  0  0  0  0  0
    0.0000    0.0000    0.0000 C   0  0  0  0  0  0  0  0  0  0  0  0
    0.0000    0.0000    0.0000 C   0  0  0  0  0  0  0  0  0  0  0  0
    0.0000    0.0000    0.0000 C   0  0  0  0  0  0  0  0  0  0  0  0
    0.0000    0.0000    0.0000 O   0  0  0  0  0  0  0  0  0  0  0  0
    0.0000    0.0000    0.0000 O   0  0  0  0  0  0  0  0  0  0  0  0
    0.0000    0.0000    0.0000 C   0  0  0  0  0  0  0  0  0  0  0  0
  1  2  1  0
  2  3  1  0
  3  4  1  0
  4  5  2  0
  5  6  1  0
  6  7  2  0
  7  8  1  0
  8  9  1  0
  9 10  1  0
 10 11  2  0
 11 12  1  0
 12 13  2  0
 13 14  1  0
 14 15  1  0
 15 16  2  0
 16 17  1  0
 17 18  2  0
 15 19  1  0
 19 20  2  0
 19 21  1  0
 21 22  1  0
  7  3  1  0
 18 10  1  0
 17 13  1  0
M  END
>  <pIC50>  (646) 
6.12

>  <ChEMBL_ID>  (646) 
CHEMBL3347418

>  <document_journal>  (646) 
MedChemComm

>  <bao_endpoint>  (646) 
BAO_0000190

>  <potential_duplicate>  (646) 
False

>  <uo_units>  (646) 
UO_0000065

>  <canonical_smiles>  (646) 
CCn1nccc1CNc2cnc3[nH]c(cc3c2)C(=O)OC

>  <parent_molecule_chembl_id>  (646) 
CHEMBL3347418

>  <assay_type>  (646) 
B

>  <src_id>  (646) 
1

>  <ligand_efficiency>  (646) 
{u'le': u'0.38', u'bei': u'20.45', u'sei': u'7.22', u'lle': u'4.33'}

>  <standard_flag>  (646) 
True

>  <molecule_chembl_id>  (646) 
CHEMBL3347418

>  <target_organism>  (646) 
Homo sapiens

>  <standard_units>  (646) 
nM

>  <record_id>  (646) 
2173261

>  <document_chembl_id>  (646) 
CHEMBL3390833

>  <bao_format>  (646) 
BAO_0000357

>  <data_validity_description>  (646) 
None

>  <activity_id>  (646) 
14927828

>  <standard_type>  (646) 
IC50

>  <target_chembl_id>  (646) 
CHEMBL1862

>  <data_validity_comment>  (646) 
None

>  <published_value>  (646) 
757

>  <document_year>  (646) 
2012

>  <target_pref_name>  (646) 
Tyrosine-protein kinase ABL

>  <assay_chembl_id>  (646) 
CHEMBL3391136

>  <standard_relation>  (646) 
=

>  <assay_description>  (646) 
Inhibition of Abl kinase (unknown origin)

>  <published_relation>  (646) 
=

>  <standard_value>  (646) 
757

>  <qudt_units>  (646) 
http://www.openphacts.org/units/Nanomolar

>  <target_tax_id>  (646) 
9606

>  <bao_label>  (646) 
single protein format

>  <published_units>  (646) 
nM

>  <pchembl_value>  (646) 
6.12

>  <published_type>  (646) 
IC50

>  <activity_comment>  (646) 
None

$$$$

     RDKit          

 20 22  0  0  0  0  0  0  0  0999 V2000
    0.0000    0.0000    0.0000 C   0  0  0  0  0  0  0  0  0  0  0  0
    0.0000    0.0000    0.0000 O   0  0  0  0  0  0  0  0  0  0  0  0
    0.0000    0.0000    0.0000 C   0  0  0  0  0  0  0  0  0  0  0  0
    0.0000    0.0000    0.0000 O   0  0  0  0  0  0  0  0  0  0  0  0
    0.0000    0.0000    0.0000 C   0  0  0  0  0  0  0  0  0  0  0  0
    0.0000    0.0000    0.0000 C   0  0  0  0  0  0  0  0  0  0  0  0
    0.0000    0.0000    0.0000 C   0  0  0  0  0  0  0  0  0  0  0  0
    0.0000    0.0000    0.0000 C   0  0  0  0  0  0  0  0  0  0  0  0
    0.0000    0.0000    0.0000 C   0  0  0  0  0  0  0  0  0  0  0  0
    0.0000    0.0000    0.0000 N   0  0  0  0  0  0  0  0  0  0  0  0
    0.0000    0.0000    0.0000 C   0  0  0  0  0  0  0  0  0  0  0  0
    0.0000    0.0000    0.0000 C   0  0  0  0  0  0  0  0  0  0  0  0
    0.0000    0.0000    0.0000 C   0  0  0  0  0  0  0  0  0  0  0  0
    0.0000    0.0000    0.0000 C   0  0  0  0  0  0  0  0  0  0  0  0
    0.0000    0.0000    0.0000 N   0  0  0  0  0  0  0  0  0  0  0  0
    0.0000    0.0000    0.0000 N   0  0  0  0  0  0  0  0  0  0  0  0
    0.0000    0.0000    0.0000 C   0  0  0  0  0  0  0  0  0  0  0  0
    0.0000    0.0000    0.0000 N   0  0  0  0  0  0  0  0  0  0  0  0
    0.0000    0.0000    0.0000 C   0  0  0  0  0  0  0  0  0  0  0  0
    0.0000    0.0000    0.0000 N   0  0  0  0  0  0  0  0  0  0  0  0
  1  2  1  0
  2  3  1  0
  3  4  2  0
  3  5  1  0
  5  6  2  0
  6  7  1  0
  7  8  2  0
  8  9  1  0
  9 10  1  0
 10 11  1  0
 11 12  1  0
 12 13  1  0
 13 14  2  0
 14 15  1  0
 15 16  1  0
  9 17  2  0
 17 18  1  0
 18 19  2  0
 19 20  1  0
 20  5  1  0
 19  7  1  0
 16 12  2  0
M  END
>  <pIC50>  (647) 
6.23

>  <ChEMBL_ID>  (647) 
CHEMBL3347390

>  <document_journal>  (647) 
MedChemComm

>  <bao_endpoint>  (647) 
BAO_0000190

>  <potential_duplicate>  (647) 
False

>  <uo_units>  (647) 
UO_0000065

>  <canonical_smiles>  (647) 
COC(=O)c1cc2cc(NCc3cc[nH]n3)cnc2[nH]1

>  <parent_molecule_chembl_id>  (647) 
CHEMBL3347390

>  <assay_type>  (647) 
B

>  <src_id>  (647) 
1

>  <ligand_efficiency>  (647) 
{u'le': u'0.43', u'bei': u'22.95', u'sei': u'6.51', u'lle': u'4.86'}

>  <standard_flag>  (647) 
True

>  <molecule_chembl_id>  (647) 
CHEMBL3347390

>  <target_organism>  (647) 
Homo sapiens

>  <standard_units>  (647) 
nM

>  <record_id>  (647) 
2173229

>  <document_chembl_id>  (647) 
CHEMBL3390833

>  <bao_format>  (647) 
BAO_0000357

>  <data_validity_description>  (647) 
None

>  <activity_id>  (647) 
14927829

>  <standard_type>  (647) 
IC50

>  <target_chembl_id>  (647) 
CHEMBL1862

>  <data_validity_comment>  (647) 
None

>  <published_value>  (647) 
594

>  <document_year>  (647) 
2012

>  <target_pref_name>  (647) 
Tyrosine-protein kinase ABL

>  <assay_chembl_id>  (647) 
CHEMBL3391136

>  <standard_relation>  (647) 
=

>  <assay_description>  (647) 
Inhibition of Abl kinase (unknown origin)

>  <published_relation>  (647) 
=

>  <standard_value>  (647) 
594

>  <qudt_units>  (647) 
http://www.openphacts.org/units/Nanomolar

>  <target_tax_id>  (647) 
9606

>  <bao_label>  (647) 
single protein format

>  <published_units>  (647) 
nM

>  <pchembl_value>  (647) 
6.23

>  <published_type>  (647) 
IC50

>  <activity_comment>  (647) 
None

$$$$

     RDKit          

 20 22  0  0  0  0  0  0  0  0999 V2000
    0.0000    0.0000    0.0000 C   0  0  0  0  0  0  0  0  0  0  0  0
    0.0000    0.0000    0.0000 O   0  0  0  0  0  0  0  0  0  0  0  0
    0.0000    0.0000    0.0000 C   0  0  0  0  0  0  0  0  0  0  0  0
    0.0000    0.0000    0.0000 O   0  0  0  0  0  0  0  0  0  0  0  0
    0.0000    0.0000    0.0000 C   0  0  0  0  0  0  0  0  0  0  0  0
    0.0000    0.0000    0.0000 C   0  0  0  0  0  0  0  0  0  0  0  0
    0.0000    0.0000    0.0000 C   0  0  0  0  0  0  0  0  0  0  0  0
    0.0000    0.0000    0.0000 C   0  0  0  0  0  0  0  0  0  0  0  0
    0.0000    0.0000    0.0000 C   0  0  0  0  0  0  0  0  0  0  0  0
    0.0000    0.0000    0.0000 N   0  0  0  0  0  0  0  0  0  0  0  0
    0.0000    0.0000    0.0000 C   0  0  0  0  0  0  0  0  0  0  0  0
    0.0000    0.0000    0.0000 C   0  0  0  0  0  0  0  0  0  0  0  0
    0.0000    0.0000    0.0000 C   0  0  0  0  0  0  0  0  0  0  0  0
    0.0000    0.0000    0.0000 C   0  0  0  0  0  0  0  0  0  0  0  0
    0.0000    0.0000    0.0000 C   0  0  0  0  0  0  0  0  0  0  0  0
    0.0000    0.0000    0.0000 S   0  0  0  0  0  0  0  0  0  0  0  0
    0.0000    0.0000    0.0000 C   0  0  0  0  0  0  0  0  0  0  0  0
    0.0000    0.0000    0.0000 N   0  0  0  0  0  0  0  0  0  0  0  0
    0.0000    0.0000    0.0000 C   0  0  0  0  0  0  0  0  0  0  0  0
    0.0000    0.0000    0.0000 N   0  0  0  0  0  0  0  0  0  0  0  0
  1  2  1  0
  2  3  1  0
  3  4  2  0
  3  5  1  0
  5  6  2  0
  6  7  1  0
  7  8  2  0
  8  9  1  0
  9 10  1  0
 10 11  1  0
 11 12  1  0
 12 13  2  0
 13 14  1  0
 14 15  2  0
 15 16  1  0
  9 17  2  0
 17 18  1  0
 18 19  2  0
 19 20  1  0
 20  5  1  0
 19  7  1  0
 16 12  1  0
M  END
>  <pIC50>  (648) 
6.83

>  <ChEMBL_ID>  (648) 
CHEMBL3347389

>  <document_journal>  (648) 
MedChemComm

>  <bao_endpoint>  (648) 
BAO_0000190

>  <potential_duplicate>  (648) 
False

>  <uo_units>  (648) 
UO_0000065

>  <canonical_smiles>  (648) 
COC(=O)c1cc2cc(NCc3cccs3)cnc2[nH]1

>  <parent_molecule_chembl_id>  (648) 
CHEMBL3347389

>  <assay_type>  (648) 
B

>  <src_id>  (648) 
1

>  <ligand_efficiency>  (648) 
{u'le': u'0.47', u'bei': u'23.76', u'sei': u'7.17', u'lle': u'4.38'}

>  <standard_flag>  (648) 
True

>  <molecule_chembl_id>  (648) 
CHEMBL3347389

>  <target_organism>  (648) 
Homo sapiens

>  <standard_units>  (648) 
nM

>  <record_id>  (648) 
2173228

>  <document_chembl_id>  (648) 
CHEMBL3390833

>  <bao_format>  (648) 
BAO_0000357

>  <data_validity_description>  (648) 
None

>  <activity_id>  (648) 
14927830

>  <standard_type>  (648) 
IC50

>  <target_chembl_id>  (648) 
CHEMBL1862

>  <data_validity_comment>  (648) 
None

>  <published_value>  (648) 
149

>  <document_year>  (648) 
2012

>  <target_pref_name>  (648) 
Tyrosine-protein kinase ABL

>  <assay_chembl_id>  (648) 
CHEMBL3391136

>  <standard_relation>  (648) 
=

>  <assay_description>  (648) 
Inhibition of Abl kinase (unknown origin)

>  <published_relation>  (648) 
=

>  <standard_value>  (648) 
149

>  <qudt_units>  (648) 
http://www.openphacts.org/units/Nanomolar

>  <target_tax_id>  (648) 
9606

>  <bao_label>  (648) 
single protein format

>  <published_units>  (648) 
nM

>  <pchembl_value>  (648) 
6.83

>  <published_type>  (648) 
IC50

>  <activity_comment>  (648) 
None

$$$$

     RDKit          

 23 25  0  0  0  0  0  0  0  0999 V2000
    0.0000    0.0000    0.0000 C   0  0  0  0  0  0  0  0  0  0  0  0
    0.0000    0.0000    0.0000 O   0  0  0  0  0  0  0  0  0  0  0  0
    0.0000    0.0000    0.0000 C   0  0  0  0  0  0  0  0  0  0  0  0
    0.0000    0.0000    0.0000 O   0  0  0  0  0  0  0  0  0  0  0  0
    0.0000    0.0000    0.0000 C   0  0  0  0  0  0  0  0  0  0  0  0
    0.0000    0.0000    0.0000 C   0  0  0  0  0  0  0  0  0  0  0  0
    0.0000    0.0000    0.0000 C   0  0  0  0  0  0  0  0  0  0  0  0
    0.0000    0.0000    0.0000 C   0  0  0  0  0  0  0  0  0  0  0  0
    0.0000    0.0000    0.0000 C   0  0  0  0  0  0  0  0  0  0  0  0
    0.0000    0.0000    0.0000 N   0  0  0  0  0  0  0  0  0  0  0  0
    0.0000    0.0000    0.0000 C   0  0  0  0  0  0  0  0  0  0  0  0
    0.0000    0.0000    0.0000 C   0  0  0  0  0  0  0  0  0  0  0  0
    0.0000    0.0000    0.0000 C   0  0  0  0  0  0  0  0  0  0  0  0
    0.0000    0.0000    0.0000 C   0  0  0  0  0  0  0  0  0  0  0  0
    0.0000    0.0000    0.0000 C   0  0  0  0  0  0  0  0  0  0  0  0
    0.0000    0.0000    0.0000 C   0  0  0  0  0  0  0  0  0  0  0  0
    0.0000    0.0000    0.0000 C   0  0  0  0  0  0  0  0  0  0  0  0
    0.0000    0.0000    0.0000 C   0  0  0  0  0  0  0  0  0  0  0  0
    0.0000    0.0000    0.0000 Cl  0  0  0  0  0  0  0  0  0  0  0  0
    0.0000    0.0000    0.0000 C   0  0  0  0  0  0  0  0  0  0  0  0
    0.0000    0.0000    0.0000 N   0  0  0  0  0  0  0  0  0  0  0  0
    0.0000    0.0000    0.0000 C   0  0  0  0  0  0  0  0  0  0  0  0
    0.0000    0.0000    0.0000 N   0  0  0  0  0  0  0  0  0  0  0  0
  1  2  1  0
  2  3  1  0
  3  4  2  0
  3  5  1  0
  5  6  2  0
  6  7  1  0
  7  8  2  0
  8  9  1  0
  9 10  1  0
 10 11  1  0
 11 12  1  0
 12 13  2  0
 13 14  1  0
 13 15  1  0
 15 16  2  0
 16 17  1  0
 17 18  2  0
 18 19  1  0
  9 20  2  0
 20 21  1  0
 21 22  2  0
 22 23  1  0
 23  5  1  0
 22  7  1  0
 18 12  1  0
M  END
>  <pIC50>  (649) 
8.85

>  <ChEMBL_ID>  (649) 
CHEMBL3347388

>  <document_journal>  (649) 
MedChemComm

>  <bao_endpoint>  (649) 
BAO_0000190

>  <potential_duplicate>  (649) 
False

>  <uo_units>  (649) 
UO_0000065

>  <canonical_smiles>  (649) 
COC(=O)c1cc2cc(NCc3c(C)cccc3Cl)cnc2[nH]1

>  <parent_molecule_chembl_id>  (649) 
CHEMBL3347388

>  <assay_type>  (649) 
B

>  <src_id>  (649) 
1

>  <ligand_efficiency>  (649) 
{u'le': u'0.53', u'bei': u'26.85', u'sei': u'13.21', u'lle': u'4.99'}

>  <standard_flag>  (649) 
True

>  <molecule_chembl_id>  (649) 
CHEMBL3347388

>  <target_organism>  (649) 
Homo sapiens

>  <standard_units>  (649) 
nM

>  <record_id>  (649) 
2173227

>  <document_chembl_id>  (649) 
CHEMBL3390833

>  <bao_format>  (649) 
BAO_0000357

>  <data_validity_description>  (649) 
None

>  <activity_id>  (649) 
14927831

>  <standard_type>  (649) 
IC50

>  <target_chembl_id>  (649) 
CHEMBL1862

>  <data_validity_comment>  (649) 
None

>  <published_value>  (649) 
1.4

>  <document_year>  (649) 
2012

>  <target_pref_name>  (649) 
Tyrosine-protein kinase ABL

>  <assay_chembl_id>  (649) 
CHEMBL3391136

>  <standard_relation>  (649) 
=

>  <assay_description>  (649) 
Inhibition of Abl kinase (unknown origin)

>  <published_relation>  (649) 
=

>  <standard_value>  (649) 
1.4

>  <qudt_units>  (649) 
http://www.openphacts.org/units/Nanomolar

>  <target_tax_id>  (649) 
9606

>  <bao_label>  (649) 
single protein format

>  <published_units>  (649) 
nM

>  <pchembl_value>  (649) 
8.85

>  <published_type>  (649) 
IC50

>  <activity_comment>  (649) 
None

$$$$

     RDKit          

 23 25  0  0  0  0  0  0  0  0999 V2000
    0.0000    0.0000    0.0000 C   0  0  0  0  0  0  0  0  0  0  0  0
    0.0000    0.0000    0.0000 O   0  0  0  0  0  0  0  0  0  0  0  0
    0.0000    0.0000    0.0000 C   0  0  0  0  0  0  0  0  0  0  0  0
    0.0000    0.0000    0.0000 O   0  0  0  0  0  0  0  0  0  0  0  0
    0.0000    0.0000    0.0000 C   0  0  0  0  0  0  0  0  0  0  0  0
    0.0000    0.0000    0.0000 C   0  0  0  0  0  0  0  0  0  0  0  0
    0.0000    0.0000    0.0000 C   0  0  0  0  0  0  0  0  0  0  0  0
    0.0000    0.0000    0.0000 C   0  0  0  0  0  0  0  0  0  0  0  0
    0.0000    0.0000    0.0000 C   0  0  0  0  0  0  0  0  0  0  0  0
    0.0000    0.0000    0.0000 N   0  0  0  0  0  0  0  0  0  0  0  0
    0.0000    0.0000    0.0000 C   0  0  0  0  0  0  0  0  0  0  0  0
    0.0000    0.0000    0.0000 C   0  0  0  0  0  0  0  0  0  0  0  0
    0.0000    0.0000    0.0000 C   0  0  0  0  0  0  0  0  0  0  0  0
    0.0000    0.0000    0.0000 Cl  0  0  0  0  0  0  0  0  0  0  0  0
    0.0000    0.0000    0.0000 C   0  0  0  0  0  0  0  0  0  0  0  0
    0.0000    0.0000    0.0000 C   0  0  0  0  0  0  0  0  0  0  0  0
    0.0000    0.0000    0.0000 C   0  0  0  0  0  0  0  0  0  0  0  0
    0.0000    0.0000    0.0000 C   0  0  0  0  0  0  0  0  0  0  0  0
    0.0000    0.0000    0.0000 Cl  0  0  0  0  0  0  0  0  0  0  0  0
    0.0000    0.0000    0.0000 C   0  0  0  0  0  0  0  0  0  0  0  0
    0.0000    0.0000    0.0000 N   0  0  0  0  0  0  0  0  0  0  0  0
    0.0000    0.0000    0.0000 C   0  0  0  0  0  0  0  0  0  0  0  0
    0.0000    0.0000    0.0000 N   0  0  0  0  0  0  0  0  0  0  0  0
  1  2  1  0
  2  3  1  0
  3  4  2  0
  3  5  1  0
  5  6  2  0
  6  7  1  0
  7  8  2  0
  8  9  1  0
  9 10  1  0
 10 11  1  0
 11 12  1  0
 12 13  2  0
 13 14  1  0
 13 15  1  0
 15 16  2  0
 16 17  1  0
 17 18  2  0
 18 19  1  0
  9 20  2  0
 20 21  1  0
 21 22  2  0
 22 23  1  0
 23  5  1  0
 22  7  1  0
 18 12  1  0
M  END
>  <pIC50>  (650) 
8.28

>  <ChEMBL_ID>  (650) 
CHEMBL3347468

>  <document_journal>  (650) 
MedChemComm

>  <bao_endpoint>  (650) 
BAO_0000190

>  <potential_duplicate>  (650) 
False

>  <uo_units>  (650) 
UO_0000065

>  <canonical_smiles>  (650) 
COC(=O)c1cc2cc(NCc3c(Cl)cccc3Cl)cnc2[nH]1

>  <parent_molecule_chembl_id>  (650) 
CHEMBL3347468

>  <assay_type>  (650) 
B

>  <src_id>  (650) 
1

>  <ligand_efficiency>  (650) 
{u'le': u'0.49', u'bei': u'23.63', u'sei': u'12.35', u'lle': u'4.24'}

>  <standard_flag>  (650) 
True

>  <molecule_chembl_id>  (650) 
CHEMBL3347468

>  <target_organism>  (650) 
Homo sapiens

>  <standard_units>  (650) 
nM

>  <record_id>  (650) 
2173322

>  <document_chembl_id>  (650) 
CHEMBL3390833

>  <bao_format>  (650) 
BAO_0000357

>  <data_validity_description>  (650) 
None

>  <activity_id>  (650) 
14927832

>  <standard_type>  (650) 
IC50

>  <target_chembl_id>  (650) 
CHEMBL1862

>  <data_validity_comment>  (650) 
None

>  <published_value>  (650) 
5.3

>  <document_year>  (650) 
2012

>  <target_pref_name>  (650) 
Tyrosine-protein kinase ABL

>  <assay_chembl_id>  (650) 
CHEMBL3391136

>  <standard_relation>  (650) 
=

>  <assay_description>  (650) 
Inhibition of Abl kinase (unknown origin)

>  <published_relation>  (650) 
=

>  <standard_value>  (650) 
5.3

>  <qudt_units>  (650) 
http://www.openphacts.org/units/Nanomolar

>  <target_tax_id>  (650) 
9606

>  <bao_label>  (650) 
single protein format

>  <published_units>  (650) 
nM

>  <pchembl_value>  (650) 
8.28

>  <published_type>  (650) 
IC50

>  <activity_comment>  (650) 
None

$$$$

     RDKit          

 23 25  0  0  0  0  0  0  0  0999 V2000
    0.0000    0.0000    0.0000 C   0  0  0  0  0  0  0  0  0  0  0  0
    0.0000    0.0000    0.0000 O   0  0  0  0  0  0  0  0  0  0  0  0
    0.0000    0.0000    0.0000 C   0  0  0  0  0  0  0  0  0  0  0  0
    0.0000    0.0000    0.0000 O   0  0  0  0  0  0  0  0  0  0  0  0
    0.0000    0.0000    0.0000 C   0  0  0  0  0  0  0  0  0  0  0  0
    0.0000    0.0000    0.0000 C   0  0  0  0  0  0  0  0  0  0  0  0
    0.0000    0.0000    0.0000 C   0  0  0  0  0  0  0  0  0  0  0  0
    0.0000    0.0000    0.0000 C   0  0  0  0  0  0  0  0  0  0  0  0
    0.0000    0.0000    0.0000 C   0  0  0  0  0  0  0  0  0  0  0  0
    0.0000    0.0000    0.0000 N   0  0  0  0  0  0  0  0  0  0  0  0
    0.0000    0.0000    0.0000 C   0  0  0  0  0  0  0  0  0  0  0  0
    0.0000    0.0000    0.0000 C   0  0  0  0  0  0  0  0  0  0  0  0
    0.0000    0.0000    0.0000 C   0  0  0  0  0  0  0  0  0  0  0  0
    0.0000    0.0000    0.0000 C   0  0  0  0  0  0  0  0  0  0  0  0
    0.0000    0.0000    0.0000 C   0  0  0  0  0  0  0  0  0  0  0  0
    0.0000    0.0000    0.0000 C   0  0  0  0  0  0  0  0  0  0  0  0
    0.0000    0.0000    0.0000 C   0  0  0  0  0  0  0  0  0  0  0  0
    0.0000    0.0000    0.0000 O   0  0  0  0  0  0  0  0  0  0  0  0
    0.0000    0.0000    0.0000 C   0  0  0  0  0  0  0  0  0  0  0  0
    0.0000    0.0000    0.0000 C   0  0  0  0  0  0  0  0  0  0  0  0
    0.0000    0.0000    0.0000 N   0  0  0  0  0  0  0  0  0  0  0  0
    0.0000    0.0000    0.0000 C   0  0  0  0  0  0  0  0  0  0  0  0
    0.0000    0.0000    0.0000 N   0  0  0  0  0  0  0  0  0  0  0  0
  1  2  1  0
  2  3  1  0
  3  4  2  0
  3  5  1  0
  5  6  2  0
  6  7  1  0
  7  8  2  0
  8  9  1  0
  9 10  1  0
 10 11  1  0
 11 12  1  0
 12 13  2  0
 13 14  1  0
 14 15  2  0
 15 16  1  0
 16 17  2  0
 17 18  1  0
 18 19  1  0
  9 20  2  0
 20 21  1  0
 21 22  2  0
 22 23  1  0
 23  5  1  0
 22  7  1  0
 17 12  1  0
M  END
>  <pIC50>  (651) 
6.29

>  <ChEMBL_ID>  (651) 
CHEMBL3347466

>  <document_journal>  (651) 
MedChemComm

>  <bao_endpoint>  (651) 
BAO_0000190

>  <potential_duplicate>  (651) 
False

>  <uo_units>  (651) 
UO_0000065

>  <canonical_smiles>  (651) 
COC(=O)c1cc2cc(NCc3ccccc3OC)cnc2[nH]1

>  <parent_molecule_chembl_id>  (651) 
CHEMBL3347466

>  <assay_type>  (651) 
B

>  <src_id>  (651) 
1

>  <ligand_efficiency>  (651) 
{u'le': u'0.37', u'bei': u'20.2', u'sei': u'8.25', u'lle': u'3.6'}

>  <standard_flag>  (651) 
True

>  <molecule_chembl_id>  (651) 
CHEMBL3347466

>  <target_organism>  (651) 
Homo sapiens

>  <standard_units>  (651) 
nM

>  <record_id>  (651) 
2173320

>  <document_chembl_id>  (651) 
CHEMBL3390833

>  <bao_format>  (651) 
BAO_0000357

>  <data_validity_description>  (651) 
None

>  <activity_id>  (651) 
14927834

>  <standard_type>  (651) 
IC50

>  <target_chembl_id>  (651) 
CHEMBL1862

>  <data_validity_comment>  (651) 
None

>  <published_value>  (651) 
515

>  <document_year>  (651) 
2012

>  <target_pref_name>  (651) 
Tyrosine-protein kinase ABL

>  <assay_chembl_id>  (651) 
CHEMBL3391136

>  <standard_relation>  (651) 
=

>  <assay_description>  (651) 
Inhibition of Abl kinase (unknown origin)

>  <published_relation>  (651) 
=

>  <standard_value>  (651) 
515

>  <qudt_units>  (651) 
http://www.openphacts.org/units/Nanomolar

>  <target_tax_id>  (651) 
9606

>  <bao_label>  (651) 
single protein format

>  <published_units>  (651) 
nM

>  <pchembl_value>  (651) 
6.29

>  <published_type>  (651) 
IC50

>  <activity_comment>  (651) 
None

$$$$

     RDKit          

 25 27  0  0  0  0  0  0  0  0999 V2000
    0.0000    0.0000    0.0000 C   0  0  0  0  0  0  0  0  0  0  0  0
    0.0000    0.0000    0.0000 O   0  0  0  0  0  0  0  0  0  0  0  0
    0.0000    0.0000    0.0000 C   0  0  0  0  0  0  0  0  0  0  0  0
    0.0000    0.0000    0.0000 O   0  0  0  0  0  0  0  0  0  0  0  0
    0.0000    0.0000    0.0000 C   0  0  0  0  0  0  0  0  0  0  0  0
    0.0000    0.0000    0.0000 C   0  0  0  0  0  0  0  0  0  0  0  0
    0.0000    0.0000    0.0000 C   0  0  0  0  0  0  0  0  0  0  0  0
    0.0000    0.0000    0.0000 C   0  0  0  0  0  0  0  0  0  0  0  0
    0.0000    0.0000    0.0000 C   0  0  0  0  0  0  0  0  0  0  0  0
    0.0000    0.0000    0.0000 N   0  0  0  0  0  0  0  0  0  0  0  0
    0.0000    0.0000    0.0000 C   0  0  0  0  0  0  0  0  0  0  0  0
    0.0000    0.0000    0.0000 C   0  0  0  0  0  0  0  0  0  0  0  0
    0.0000    0.0000    0.0000 C   0  0  0  0  0  0  0  0  0  0  0  0
    0.0000    0.0000    0.0000 C   0  0  0  0  0  0  0  0  0  0  0  0
    0.0000    0.0000    0.0000 C   0  0  0  0  0  0  0  0  0  0  0  0
    0.0000    0.0000    0.0000 C   0  0  0  0  0  0  0  0  0  0  0  0
    0.0000    0.0000    0.0000 C   0  0  0  0  0  0  0  0  0  0  0  0
    0.0000    0.0000    0.0000 C   0  0  0  0  0  0  0  0  0  0  0  0
    0.0000    0.0000    0.0000 F   0  0  0  0  0  0  0  0  0  0  0  0
    0.0000    0.0000    0.0000 F   0  0  0  0  0  0  0  0  0  0  0  0
    0.0000    0.0000    0.0000 F   0  0  0  0  0  0  0  0  0  0  0  0
    0.0000    0.0000    0.0000 C   0  0  0  0  0  0  0  0  0  0  0  0
    0.0000    0.0000    0.0000 N   0  0  0  0  0  0  0  0  0  0  0  0
    0.0000    0.0000    0.0000 C   0  0  0  0  0  0  0  0  0  0  0  0
    0.0000    0.0000    0.0000 N   0  0  0  0  0  0  0  0  0  0  0  0
  1  2  1  0
  2  3  1  0
  3  4  2  0
  3  5  1  0
  5  6  2  0
  6  7  1  0
  7  8  2  0
  8  9  1  0
  9 10  1  0
 10 11  1  0
 11 12  1  0
 12 13  2  0
 13 14  1  0
 14 15  2  0
 15 16  1  0
 16 17  2  0
 17 18  1  0
 18 19  1  0
 18 20  1  0
 18 21  1  0
  9 22  2  0
 22 23  1  0
 23 24  2  0
 24 25  1  0
 25  5  1  0
 24  7  1  0
 17 12  1  0
M  END
>  <pIC50>  (652) 
6.78

>  <ChEMBL_ID>  (652) 
CHEMBL3347453

>  <document_journal>  (652) 
MedChemComm

>  <bao_endpoint>  (652) 
BAO_0000190

>  <potential_duplicate>  (652) 
False

>  <uo_units>  (652) 
UO_0000065

>  <canonical_smiles>  (652) 
COC(=O)c1cc2cc(NCc3ccccc3C(F)(F)F)cnc2[nH]1

>  <parent_molecule_chembl_id>  (652) 
CHEMBL3347453

>  <assay_type>  (652) 
B

>  <src_id>  (652) 
1

>  <ligand_efficiency>  (652) 
{u'le': u'0.37', u'bei': u'19.41', u'sei': u'10.12', u'lle': u'3.13'}

>  <standard_flag>  (652) 
True

>  <molecule_chembl_id>  (652) 
CHEMBL3347453

>  <target_organism>  (652) 
Homo sapiens

>  <standard_units>  (652) 
nM

>  <record_id>  (652) 
2173304

>  <document_chembl_id>  (652) 
CHEMBL3390833

>  <bao_format>  (652) 
BAO_0000357

>  <data_validity_description>  (652) 
None

>  <activity_id>  (652) 
14927835

>  <standard_type>  (652) 
IC50

>  <target_chembl_id>  (652) 
CHEMBL1862

>  <data_validity_comment>  (652) 
None

>  <published_value>  (652) 
166

>  <document_year>  (652) 
2012

>  <target_pref_name>  (652) 
Tyrosine-protein kinase ABL

>  <assay_chembl_id>  (652) 
CHEMBL3391136

>  <standard_relation>  (652) 
=

>  <assay_description>  (652) 
Inhibition of Abl kinase (unknown origin)

>  <published_relation>  (652) 
=

>  <standard_value>  (652) 
166

>  <qudt_units>  (652) 
http://www.openphacts.org/units/Nanomolar

>  <target_tax_id>  (652) 
9606

>  <bao_label>  (652) 
single protein format

>  <published_units>  (652) 
nM

>  <pchembl_value>  (652) 
6.78

>  <published_type>  (652) 
IC50

>  <activity_comment>  (652) 
None

$$$$

     RDKit          

 22 24  0  0  0  0  0  0  0  0999 V2000
    0.0000    0.0000    0.0000 C   0  0  0  0  0  0  0  0  0  0  0  0
    0.0000    0.0000    0.0000 O   0  0  0  0  0  0  0  0  0  0  0  0
    0.0000    0.0000    0.0000 C   0  0  0  0  0  0  0  0  0  0  0  0
    0.0000    0.0000    0.0000 O   0  0  0  0  0  0  0  0  0  0  0  0
    0.0000    0.0000    0.0000 C   0  0  0  0  0  0  0  0  0  0  0  0
    0.0000    0.0000    0.0000 C   0  0  0  0  0  0  0  0  0  0  0  0
    0.0000    0.0000    0.0000 C   0  0  0  0  0  0  0  0  0  0  0  0
    0.0000    0.0000    0.0000 C   0  0  0  0  0  0  0  0  0  0  0  0
    0.0000    0.0000    0.0000 C   0  0  0  0  0  0  0  0  0  0  0  0
    0.0000    0.0000    0.0000 N   0  0  0  0  0  0  0  0  0  0  0  0
    0.0000    0.0000    0.0000 C   0  0  0  0  0  0  0  0  0  0  0  0
    0.0000    0.0000    0.0000 C   0  0  0  0  0  0  0  0  0  0  0  0
    0.0000    0.0000    0.0000 C   0  0  0  0  0  0  0  0  0  0  0  0
    0.0000    0.0000    0.0000 C   0  0  0  0  0  0  0  0  0  0  0  0
    0.0000    0.0000    0.0000 C   0  0  0  0  0  0  0  0  0  0  0  0
    0.0000    0.0000    0.0000 C   0  0  0  0  0  0  0  0  0  0  0  0
    0.0000    0.0000    0.0000 C   0  0  0  0  0  0  0  0  0  0  0  0
    0.0000    0.0000    0.0000 C   0  0  0  0  0  0  0  0  0  0  0  0
    0.0000    0.0000    0.0000 C   0  0  0  0  0  0  0  0  0  0  0  0
    0.0000    0.0000    0.0000 N   0  0  0  0  0  0  0  0  0  0  0  0
    0.0000    0.0000    0.0000 C   0  0  0  0  0  0  0  0  0  0  0  0
    0.0000    0.0000    0.0000 N   0  0  0  0  0  0  0  0  0  0  0  0
  1  2  1  0
  2  3  1  0
  3  4  2  0
  3  5  1  0
  5  6  2  0
  6  7  1  0
  7  8  2  0
  8  9  1  0
  9 10  1  0
 10 11  1  0
 11 12  1  0
 12 13  2  0
 13 14  1  0
 14 15  2  0
 15 16  1  0
 16 17  2  0
 17 18  1  0
  9 19  2  0
 19 20  1  0
 20 21  2  0
 21 22  1  0
 22  5  1  0
 21  7  1  0
 17 12  1  0
M  END
>  <pIC50>  (653) 
7.72

>  <ChEMBL_ID>  (653) 
CHEMBL3347452

>  <document_journal>  (653) 
MedChemComm

>  <bao_endpoint>  (653) 
BAO_0000190

>  <potential_duplicate>  (653) 
False

>  <uo_units>  (653) 
UO_0000065

>  <canonical_smiles>  (653) 
COC(=O)c1cc2cc(NCc3ccccc3C)cnc2[nH]1

>  <parent_molecule_chembl_id>  (653) 
CHEMBL3347452

>  <assay_type>  (653) 
B

>  <src_id>  (653) 
1

>  <ligand_efficiency>  (653) 
{u'le': u'0.48', u'bei': u'26.14', u'sei': u'11.52', u'lle': u'4.52'}

>  <standard_flag>  (653) 
True

>  <molecule_chembl_id>  (653) 
CHEMBL3347452

>  <target_organism>  (653) 
Homo sapiens

>  <standard_units>  (653) 
nM

>  <record_id>  (653) 
2173303

>  <document_chembl_id>  (653) 
CHEMBL3390833

>  <bao_format>  (653) 
BAO_0000357

>  <data_validity_description>  (653) 
None

>  <activity_id>  (653) 
14927836

>  <standard_type>  (653) 
IC50

>  <target_chembl_id>  (653) 
CHEMBL1862

>  <data_validity_comment>  (653) 
None

>  <published_value>  (653) 
19

>  <document_year>  (653) 
2012

>  <target_pref_name>  (653) 
Tyrosine-protein kinase ABL

>  <assay_chembl_id>  (653) 
CHEMBL3391136

>  <standard_relation>  (653) 
=

>  <assay_description>  (653) 
Inhibition of Abl kinase (unknown origin)

>  <published_relation>  (653) 
=

>  <standard_value>  (653) 
19

>  <qudt_units>  (653) 
http://www.openphacts.org/units/Nanomolar

>  <target_tax_id>  (653) 
9606

>  <bao_label>  (653) 
single protein format

>  <published_units>  (653) 
nM

>  <pchembl_value>  (653) 
7.72

>  <published_type>  (653) 
IC50

>  <activity_comment>  (653) 
None

$$$$

     RDKit          

 22 24  0  0  0  0  0  0  0  0999 V2000
    0.0000    0.0000    0.0000 C   0  0  0  0  0  0  0  0  0  0  0  0
    0.0000    0.0000    0.0000 O   0  0  0  0  0  0  0  0  0  0  0  0
    0.0000    0.0000    0.0000 C   0  0  0  0  0  0  0  0  0  0  0  0
    0.0000    0.0000    0.0000 O   0  0  0  0  0  0  0  0  0  0  0  0
    0.0000    0.0000    0.0000 C   0  0  0  0  0  0  0  0  0  0  0  0
    0.0000    0.0000    0.0000 C   0  0  0  0  0  0  0  0  0  0  0  0
    0.0000    0.0000    0.0000 C   0  0  0  0  0  0  0  0  0  0  0  0
    0.0000    0.0000    0.0000 C   0  0  0  0  0  0  0  0  0  0  0  0
    0.0000    0.0000    0.0000 C   0  0  0  0  0  0  0  0  0  0  0  0
    0.0000    0.0000    0.0000 N   0  0  0  0  0  0  0  0  0  0  0  0
    0.0000    0.0000    0.0000 C   0  0  0  0  0  0  0  0  0  0  0  0
    0.0000    0.0000    0.0000 C   0  0  0  0  0  0  0  0  0  0  0  0
    0.0000    0.0000    0.0000 C   0  0  0  0  0  0  0  0  0  0  0  0
    0.0000    0.0000    0.0000 C   0  0  0  0  0  0  0  0  0  0  0  0
    0.0000    0.0000    0.0000 C   0  0  0  0  0  0  0  0  0  0  0  0
    0.0000    0.0000    0.0000 C   0  0  0  0  0  0  0  0  0  0  0  0
    0.0000    0.0000    0.0000 C   0  0  0  0  0  0  0  0  0  0  0  0
    0.0000    0.0000    0.0000 Br  0  0  0  0  0  0  0  0  0  0  0  0
    0.0000    0.0000    0.0000 C   0  0  0  0  0  0  0  0  0  0  0  0
    0.0000    0.0000    0.0000 N   0  0  0  0  0  0  0  0  0  0  0  0
    0.0000    0.0000    0.0000 C   0  0  0  0  0  0  0  0  0  0  0  0
    0.0000    0.0000    0.0000 N   0  0  0  0  0  0  0  0  0  0  0  0
  1  2  1  0
  2  3  1  0
  3  4  2  0
  3  5  1  0
  5  6  2  0
  6  7  1  0
  7  8  2  0
  8  9  1  0
  9 10  1  0
 10 11  1  0
 11 12  1  0
 12 13  2  0
 13 14  1  0
 14 15  2  0
 15 16  1  0
 16 17  2  0
 17 18  1  0
  9 19  2  0
 19 20  1  0
 20 21  2  0
 21 22  1  0
 22  5  1  0
 21  7  1  0
 17 12  1  0
M  END
>  <pIC50>  (654) 
6.88

>  <ChEMBL_ID>  (654) 
CHEMBL3347451

>  <document_journal>  (654) 
MedChemComm

>  <bao_endpoint>  (654) 
BAO_0000190

>  <potential_duplicate>  (654) 
False

>  <uo_units>  (654) 
UO_0000065

>  <canonical_smiles>  (654) 
COC(=O)c1cc2cc(NCc3ccccc3Br)cnc2[nH]1

>  <parent_molecule_chembl_id>  (654) 
CHEMBL3347451

>  <assay_type>  (654) 
B

>  <src_id>  (654) 
1

>  <ligand_efficiency>  (654) 
{u'le': u'0.43', u'bei': u'19.11', u'sei': u'10.27', u'lle': u'3.42'}

>  <standard_flag>  (654) 
True

>  <molecule_chembl_id>  (654) 
CHEMBL3347451

>  <target_organism>  (654) 
Homo sapiens

>  <standard_units>  (654) 
nM

>  <record_id>  (654) 
2173302

>  <document_chembl_id>  (654) 
CHEMBL3390833

>  <bao_format>  (654) 
BAO_0000357

>  <data_validity_description>  (654) 
None

>  <activity_id>  (654) 
14927837

>  <standard_type>  (654) 
IC50

>  <target_chembl_id>  (654) 
CHEMBL1862

>  <data_validity_comment>  (654) 
None

>  <published_value>  (654) 
131

>  <document_year>  (654) 
2012

>  <target_pref_name>  (654) 
Tyrosine-protein kinase ABL

>  <assay_chembl_id>  (654) 
CHEMBL3391136

>  <standard_relation>  (654) 
=

>  <assay_description>  (654) 
Inhibition of Abl kinase (unknown origin)

>  <published_relation>  (654) 
=

>  <standard_value>  (654) 
131

>  <qudt_units>  (654) 
http://www.openphacts.org/units/Nanomolar

>  <target_tax_id>  (654) 
9606

>  <bao_label>  (654) 
single protein format

>  <published_units>  (654) 
nM

>  <pchembl_value>  (654) 
6.88

>  <published_type>  (654) 
IC50

>  <activity_comment>  (654) 
None

$$$$

     RDKit          

 22 24  0  0  0  0  0  0  0  0999 V2000
    0.0000    0.0000    0.0000 C   0  0  0  0  0  0  0  0  0  0  0  0
    0.0000    0.0000    0.0000 O   0  0  0  0  0  0  0  0  0  0  0  0
    0.0000    0.0000    0.0000 C   0  0  0  0  0  0  0  0  0  0  0  0
    0.0000    0.0000    0.0000 O   0  0  0  0  0  0  0  0  0  0  0  0
    0.0000    0.0000    0.0000 C   0  0  0  0  0  0  0  0  0  0  0  0
    0.0000    0.0000    0.0000 C   0  0  0  0  0  0  0  0  0  0  0  0
    0.0000    0.0000    0.0000 C   0  0  0  0  0  0  0  0  0  0  0  0
    0.0000    0.0000    0.0000 C   0  0  0  0  0  0  0  0  0  0  0  0
    0.0000    0.0000    0.0000 C   0  0  0  0  0  0  0  0  0  0  0  0
    0.0000    0.0000    0.0000 N   0  0  0  0  0  0  0  0  0  0  0  0
    0.0000    0.0000    0.0000 C   0  0  0  0  0  0  0  0  0  0  0  0
    0.0000    0.0000    0.0000 O   0  0  0  0  0  0  0  0  0  0  0  0
    0.0000    0.0000    0.0000 C   0  0  0  0  0  0  0  0  0  0  0  0
    0.0000    0.0000    0.0000 C   0  0  0  0  0  0  0  0  0  0  0  0
    0.0000    0.0000    0.0000 C   0  0  0  0  0  0  0  0  0  0  0  0
    0.0000    0.0000    0.0000 C   0  0  0  0  0  0  0  0  0  0  0  0
    0.0000    0.0000    0.0000 N   0  0  0  0  0  0  0  0  0  0  0  0
    0.0000    0.0000    0.0000 N   0  0  0  0  0  0  0  0  0  0  0  0
    0.0000    0.0000    0.0000 C   0  0  0  0  0  0  0  0  0  0  0  0
    0.0000    0.0000    0.0000 N   0  0  0  0  0  0  0  0  0  0  0  0
    0.0000    0.0000    0.0000 C   0  0  0  0  0  0  0  0  0  0  0  0
    0.0000    0.0000    0.0000 N   0  0  0  0  0  0  0  0  0  0  0  0
  1  2  1  0
  2  3  1  0
  3  4  2  0
  3  5  1  0
  5  6  2  0
  6  7  1  0
  7  8  2  0
  8  9  1  0
  9 10  1  0
 10 11  1  0
 11 12  2  0
 11 13  1  0
 13 14  2  0
 14 15  1  0
 15 16  1  0
 15 17  2  0
 17 18  1  0
  9 19  2  0
 19 20  1  0
 20 21  2  0
 21 22  1  0
 22  5  1  0
 21  7  1  0
 18 13  1  0
M  END
>  <pIC50>  (655) 
6.09

>  <ChEMBL_ID>  (655) 
CHEMBL3347440

>  <document_journal>  (655) 
MedChemComm

>  <bao_endpoint>  (655) 
BAO_0000190

>  <potential_duplicate>  (655) 
False

>  <uo_units>  (655) 
UO_0000065

>  <canonical_smiles>  (655) 
COC(=O)c1cc2cc(NC(=O)c3cc(C)n[nH]3)cnc2[nH]1

>  <parent_molecule_chembl_id>  (655) 
CHEMBL3347440

>  <assay_type>  (655) 
B

>  <src_id>  (655) 
1

>  <ligand_efficiency>  (655) 
{u'le': u'0.38', u'bei': u'20.36', u'sei': u'5.4', u'lle': u'4.97'}

>  <standard_flag>  (655) 
True

>  <molecule_chembl_id>  (655) 
CHEMBL3347440

>  <target_organism>  (655) 
Homo sapiens

>  <standard_units>  (655) 
nM

>  <record_id>  (655) 
2173285

>  <document_chembl_id>  (655) 
CHEMBL3390833

>  <bao_format>  (655) 
BAO_0000357

>  <data_validity_description>  (655) 
None

>  <activity_id>  (655) 
14927838

>  <standard_type>  (655) 
IC50

>  <target_chembl_id>  (655) 
CHEMBL1862

>  <data_validity_comment>  (655) 
None

>  <published_value>  (655) 
805

>  <document_year>  (655) 
2012

>  <target_pref_name>  (655) 
Tyrosine-protein kinase ABL

>  <assay_chembl_id>  (655) 
CHEMBL3391136

>  <standard_relation>  (655) 
=

>  <assay_description>  (655) 
Inhibition of Abl kinase (unknown origin)

>  <published_relation>  (655) 
=

>  <standard_value>  (655) 
805

>  <qudt_units>  (655) 
http://www.openphacts.org/units/Nanomolar

>  <target_tax_id>  (655) 
9606

>  <bao_label>  (655) 
single protein format

>  <published_units>  (655) 
nM

>  <pchembl_value>  (655) 
6.09

>  <published_type>  (655) 
IC50

>  <activity_comment>  (655) 
None

$$$$

     RDKit          

 24 26  0  0  0  0  0  0  0  0999 V2000
    0.0000    0.0000    0.0000 C   0  0  0  0  0  0  0  0  0  0  0  0
    0.0000    0.0000    0.0000 O   0  0  0  0  0  0  0  0  0  0  0  0
    0.0000    0.0000    0.0000 C   0  0  0  0  0  0  0  0  0  0  0  0
    0.0000    0.0000    0.0000 O   0  0  0  0  0  0  0  0  0  0  0  0
    0.0000    0.0000    0.0000 C   0  0  0  0  0  0  0  0  0  0  0  0
    0.0000    0.0000    0.0000 C   0  0  0  0  0  0  0  0  0  0  0  0
    0.0000    0.0000    0.0000 C   0  0  0  0  0  0  0  0  0  0  0  0
    0.0000    0.0000    0.0000 C   0  0  0  0  0  0  0  0  0  0  0  0
    0.0000    0.0000    0.0000 C   0  0  0  0  0  0  0  0  0  0  0  0
    0.0000    0.0000    0.0000 N   0  0  0  0  0  0  0  0  0  0  0  0
    0.0000    0.0000    0.0000 C   0  0  0  0  0  0  0  0  0  0  0  0
    0.0000    0.0000    0.0000 O   0  0  0  0  0  0  0  0  0  0  0  0
    0.0000    0.0000    0.0000 C   0  0  0  0  0  0  0  0  0  0  0  0
    0.0000    0.0000    0.0000 C   0  0  0  0  0  0  0  0  0  0  0  0
    0.0000    0.0000    0.0000 C   0  0  0  0  0  0  0  0  0  0  0  0
    0.0000    0.0000    0.0000 C   0  0  0  0  0  0  0  0  0  0  0  0
    0.0000    0.0000    0.0000 C   0  0  0  0  0  0  0  0  0  0  0  0
    0.0000    0.0000    0.0000 C   0  0  0  0  0  0  0  0  0  0  0  0
    0.0000    0.0000    0.0000 C   0  0  0  0  0  0  0  0  0  0  0  0
    0.0000    0.0000    0.0000 Cl  0  0  0  0  0  0  0  0  0  0  0  0
    0.0000    0.0000    0.0000 C   0  0  0  0  0  0  0  0  0  0  0  0
    0.0000    0.0000    0.0000 N   0  0  0  0  0  0  0  0  0  0  0  0
    0.0000    0.0000    0.0000 C   0  0  0  0  0  0  0  0  0  0  0  0
    0.0000    0.0000    0.0000 N   0  0  0  0  0  0  0  0  0  0  0  0
  1  2  1  0
  2  3  1  0
  3  4  2  0
  3  5  1  0
  5  6  2  0
  6  7  1  0
  7  8  2  0
  8  9  1  0
  9 10  1  0
 10 11  1  0
 11 12  2  0
 11 13  1  0
 13 14  2  0
 14 15  1  0
 14 16  1  0
 16 17  2  0
 17 18  1  0
 18 19  2  0
 19 20  1  0
  9 21  2  0
 21 22  1  0
 22 23  2  0
 23 24  1  0
 24  5  1  0
 23  7  1  0
 19 13  1  0
M  END
>  <pIC50>  (656) 
7.55

>  <ChEMBL_ID>  (656) 
CHEMBL3347638

>  <document_journal>  (656) 
MedChemComm

>  <bao_endpoint>  (656) 
BAO_0000190

>  <potential_duplicate>  (656) 
False

>  <uo_units>  (656) 
UO_0000065

>  <canonical_smiles>  (656) 
COC(=O)c1cc2cc(NC(=O)c3c(C)cccc3Cl)cnc2[nH]1

>  <parent_molecule_chembl_id>  (656) 
CHEMBL3347638

>  <assay_type>  (656) 
B

>  <src_id>  (656) 
1

>  <ligand_efficiency>  (656) 
{u'le': u'0.43', u'bei': u'21.97', u'sei': u'8.98', u'lle': u'4.3'}

>  <standard_flag>  (656) 
True

>  <molecule_chembl_id>  (656) 
CHEMBL3347638

>  <target_organism>  (656) 
Homo sapiens

>  <standard_units>  (656) 
nM

>  <record_id>  (656) 
2173603

>  <document_chembl_id>  (656) 
CHEMBL3390833

>  <bao_format>  (656) 
BAO_0000357

>  <data_validity_description>  (656) 
None

>  <activity_id>  (656) 
14927843

>  <standard_type>  (656) 
IC50

>  <target_chembl_id>  (656) 
CHEMBL1862

>  <data_validity_comment>  (656) 
None

>  <published_value>  (656) 
28

>  <document_year>  (656) 
2012

>  <target_pref_name>  (656) 
Tyrosine-protein kinase ABL

>  <assay_chembl_id>  (656) 
CHEMBL3391136

>  <standard_relation>  (656) 
=

>  <assay_description>  (656) 
Inhibition of Abl kinase (unknown origin)

>  <published_relation>  (656) 
=

>  <standard_value>  (656) 
28

>  <qudt_units>  (656) 
http://www.openphacts.org/units/Nanomolar

>  <target_tax_id>  (656) 
9606

>  <bao_label>  (656) 
single protein format

>  <published_units>  (656) 
nM

>  <pchembl_value>  (656) 
7.55

>  <published_type>  (656) 
IC50

>  <activity_comment>  (656) 
None

$$$$

     RDKit          

 24 26  0  0  0  0  0  0  0  0999 V2000
    0.0000    0.0000    0.0000 C   0  0  0  0  0  0  0  0  0  0  0  0
    0.0000    0.0000    0.0000 O   0  0  0  0  0  0  0  0  0  0  0  0
    0.0000    0.0000    0.0000 C   0  0  0  0  0  0  0  0  0  0  0  0
    0.0000    0.0000    0.0000 O   0  0  0  0  0  0  0  0  0  0  0  0
    0.0000    0.0000    0.0000 C   0  0  0  0  0  0  0  0  0  0  0  0
    0.0000    0.0000    0.0000 C   0  0  0  0  0  0  0  0  0  0  0  0
    0.0000    0.0000    0.0000 C   0  0  0  0  0  0  0  0  0  0  0  0
    0.0000    0.0000    0.0000 C   0  0  0  0  0  0  0  0  0  0  0  0
    0.0000    0.0000    0.0000 C   0  0  0  0  0  0  0  0  0  0  0  0
    0.0000    0.0000    0.0000 N   0  0  0  0  0  0  0  0  0  0  0  0
    0.0000    0.0000    0.0000 C   0  0  0  0  0  0  0  0  0  0  0  0
    0.0000    0.0000    0.0000 O   0  0  0  0  0  0  0  0  0  0  0  0
    0.0000    0.0000    0.0000 C   0  0  0  0  0  0  0  0  0  0  0  0
    0.0000    0.0000    0.0000 C   0  0  0  0  0  0  0  0  0  0  0  0
    0.0000    0.0000    0.0000 Cl  0  0  0  0  0  0  0  0  0  0  0  0
    0.0000    0.0000    0.0000 C   0  0  0  0  0  0  0  0  0  0  0  0
    0.0000    0.0000    0.0000 C   0  0  0  0  0  0  0  0  0  0  0  0
    0.0000    0.0000    0.0000 C   0  0  0  0  0  0  0  0  0  0  0  0
    0.0000    0.0000    0.0000 C   0  0  0  0  0  0  0  0  0  0  0  0
    0.0000    0.0000    0.0000 Cl  0  0  0  0  0  0  0  0  0  0  0  0
    0.0000    0.0000    0.0000 C   0  0  0  0  0  0  0  0  0  0  0  0
    0.0000    0.0000    0.0000 N   0  0  0  0  0  0  0  0  0  0  0  0
    0.0000    0.0000    0.0000 C   0  0  0  0  0  0  0  0  0  0  0  0
    0.0000    0.0000    0.0000 N   0  0  0  0  0  0  0  0  0  0  0  0
  1  2  1  0
  2  3  1  0
  3  4  2  0
  3  5  1  0
  5  6  2  0
  6  7  1  0
  7  8  2  0
  8  9  1  0
  9 10  1  0
 10 11  1  0
 11 12  2  0
 11 13  1  0
 13 14  2  0
 14 15  1  0
 14 16  1  0
 16 17  2  0
 17 18  1  0
 18 19  2  0
 19 20  1  0
  9 21  2  0
 21 22  1  0
 22 23  2  0
 23 24  1  0
 24  5  1  0
 23  7  1  0
 19 13  1  0
M  END
>  <pIC50>  (657) 
7.43

>  <ChEMBL_ID>  (657) 
CHEMBL3347637

>  <document_journal>  (657) 
MedChemComm

>  <bao_endpoint>  (657) 
BAO_0000190

>  <potential_duplicate>  (657) 
False

>  <uo_units>  (657) 
UO_0000065

>  <canonical_smiles>  (657) 
COC(=O)c1cc2cc(NC(=O)c3c(Cl)cccc3Cl)cnc2[nH]1

>  <parent_molecule_chembl_id>  (657) 
CHEMBL3347637

>  <assay_type>  (657) 
B

>  <src_id>  (657) 
1

>  <ligand_efficiency>  (657) 
{u'le': u'0.42', u'bei': u'20.41', u'sei': u'8.84', u'lle': u'4'}

>  <standard_flag>  (657) 
True

>  <molecule_chembl_id>  (657) 
CHEMBL3347637

>  <target_organism>  (657) 
Homo sapiens

>  <standard_units>  (657) 
nM

>  <record_id>  (657) 
2173602

>  <document_chembl_id>  (657) 
CHEMBL3390833

>  <bao_format>  (657) 
BAO_0000357

>  <data_validity_description>  (657) 
None

>  <activity_id>  (657) 
14927844

>  <standard_type>  (657) 
IC50

>  <target_chembl_id>  (657) 
CHEMBL1862

>  <data_validity_comment>  (657) 
None

>  <published_value>  (657) 
37

>  <document_year>  (657) 
2012

>  <target_pref_name>  (657) 
Tyrosine-protein kinase ABL

>  <assay_chembl_id>  (657) 
CHEMBL3391136

>  <standard_relation>  (657) 
=

>  <assay_description>  (657) 
Inhibition of Abl kinase (unknown origin)

>  <published_relation>  (657) 
=

>  <standard_value>  (657) 
37

>  <qudt_units>  (657) 
http://www.openphacts.org/units/Nanomolar

>  <target_tax_id>  (657) 
9606

>  <bao_label>  (657) 
single protein format

>  <published_units>  (657) 
nM

>  <pchembl_value>  (657) 
7.43

>  <published_type>  (657) 
IC50

>  <activity_comment>  (657) 
None

$$$$

     RDKit          

 25 27  0  0  0  0  0  0  0  0999 V2000
    0.0000    0.0000    0.0000 C   0  0  0  0  0  0  0  0  0  0  0  0
    0.0000    0.0000    0.0000 O   0  0  0  0  0  0  0  0  0  0  0  0
    0.0000    0.0000    0.0000 C   0  0  0  0  0  0  0  0  0  0  0  0
    0.0000    0.0000    0.0000 O   0  0  0  0  0  0  0  0  0  0  0  0
    0.0000    0.0000    0.0000 C   0  0  0  0  0  0  0  0  0  0  0  0
    0.0000    0.0000    0.0000 C   0  0  0  0  0  0  0  0  0  0  0  0
    0.0000    0.0000    0.0000 C   0  0  0  0  0  0  0  0  0  0  0  0
    0.0000    0.0000    0.0000 C   0  0  0  0  0  0  0  0  0  0  0  0
    0.0000    0.0000    0.0000 C   0  0  0  0  0  0  0  0  0  0  0  0
    0.0000    0.0000    0.0000 N   0  0  0  0  0  0  0  0  0  0  0  0
    0.0000    0.0000    0.0000 C   0  0  0  0  0  0  0  0  0  0  0  0
    0.0000    0.0000    0.0000 O   0  0  0  0  0  0  0  0  0  0  0  0
    0.0000    0.0000    0.0000 C   0  0  0  0  0  0  0  0  0  0  0  0
    0.0000    0.0000    0.0000 C   0  0  0  0  0  0  0  0  0  0  0  0
    0.0000    0.0000    0.0000 F   0  0  0  0  0  0  0  0  0  0  0  0
    0.0000    0.0000    0.0000 C   0  0  0  0  0  0  0  0  0  0  0  0
    0.0000    0.0000    0.0000 C   0  0  0  0  0  0  0  0  0  0  0  0
    0.0000    0.0000    0.0000 C   0  0  0  0  0  0  0  0  0  0  0  0
    0.0000    0.0000    0.0000 C   0  0  0  0  0  0  0  0  0  0  0  0
    0.0000    0.0000    0.0000 O   0  0  0  0  0  0  0  0  0  0  0  0
    0.0000    0.0000    0.0000 C   0  0  0  0  0  0  0  0  0  0  0  0
    0.0000    0.0000    0.0000 C   0  0  0  0  0  0  0  0  0  0  0  0
    0.0000    0.0000    0.0000 N   0  0  0  0  0  0  0  0  0  0  0  0
    0.0000    0.0000    0.0000 C   0  0  0  0  0  0  0  0  0  0  0  0
    0.0000    0.0000    0.0000 N   0  0  0  0  0  0  0  0  0  0  0  0
  1  2  1  0
  2  3  1  0
  3  4  2  0
  3  5  1  0
  5  6  2  0
  6  7  1  0
  7  8  2  0
  8  9  1  0
  9 10  1  0
 10 11  1  0
 11 12  2  0
 11 13  1  0
 13 14  2  0
 14 15  1  0
 14 16  1  0
 16 17  2  0
 17 18  1  0
 18 19  2  0
 19 20  1  0
 20 21  1  0
  9 22  2  0
 22 23  1  0
 23 24  2  0
 24 25  1  0
 25  5  1  0
 24  7  1  0
 19 13  1  0
M  END
>  <pIC50>  (658) 
7.1575

>  <ChEMBL_ID>  (658) 
CHEMBL3347624

>  <document_journal>  (658) 
MedChemComm

>  <bao_endpoint>  (658) 
BAO_0000190

>  <potential_duplicate>  (658) 
False

>  <uo_units>  (658) 
UO_0000065

>  <canonical_smiles>  (658) 
COC(=O)c1cc2cc(NC(=O)c3c(F)cccc3OC)cnc2[nH]1

>  <parent_molecule_chembl_id>  (658) 
CHEMBL3347624

>  <assay_type>  (658) 
B

>  <src_id>  (658) 
1

>  <ligand_efficiency>  (658) 
{u'le': u'0.37', u'bei': u'19.62', u'sei': u'7.22', u'lle': u'4.45'}

>  <standard_flag>  (658) 
True

>  <molecule_chembl_id>  (658) 
CHEMBL3347624

>  <target_organism>  (658) 
Homo sapiens

>  <standard_units>  (658) 
nM

>  <record_id>  (658) 
2173575

>  <document_chembl_id>  (658) 
CHEMBL3390833

>  <bao_format>  (658) 
BAO_0000357

>  <data_validity_description>  (658) 
None

>  <activity_id>  (658) 
14927845

>  <standard_type>  (658) 
IC50

>  <target_chembl_id>  (658) 
CHEMBL1862

>  <data_validity_comment>  (658) 
None

>  <published_value>  (658) 
184

>  <document_year>  (658) 
2012

>  <target_pref_name>  (658) 
Tyrosine-protein kinase ABL

>  <assay_chembl_id>  (658) 
CHEMBL3391136

>  <standard_relation>  (658) 
=

>  <assay_description>  (658) 
Inhibition of Abl kinase (unknown origin)

>  <published_relation>  (658) 
=

>  <standard_value>  (658) 
184

>  <qudt_units>  (658) 
http://www.openphacts.org/units/Nanomolar

>  <target_tax_id>  (658) 
9606

>  <bao_label>  (658) 
single protein format

>  <published_units>  (658) 
nM

>  <pchembl_value>  (658) 
6.74

>  <published_type>  (658) 
IC50

>  <activity_comment>  (658) 
None

$$$$

     RDKit          

 26 28  0  0  0  0  0  0  0  0999 V2000
    0.0000    0.0000    0.0000 C   0  0  0  0  0  0  0  0  0  0  0  0
    0.0000    0.0000    0.0000 O   0  0  0  0  0  0  0  0  0  0  0  0
    0.0000    0.0000    0.0000 C   0  0  0  0  0  0  0  0  0  0  0  0
    0.0000    0.0000    0.0000 O   0  0  0  0  0  0  0  0  0  0  0  0
    0.0000    0.0000    0.0000 C   0  0  0  0  0  0  0  0  0  0  0  0
    0.0000    0.0000    0.0000 C   0  0  0  0  0  0  0  0  0  0  0  0
    0.0000    0.0000    0.0000 C   0  0  0  0  0  0  0  0  0  0  0  0
    0.0000    0.0000    0.0000 C   0  0  0  0  0  0  0  0  0  0  0  0
    0.0000    0.0000    0.0000 C   0  0  0  0  0  0  0  0  0  0  0  0
    0.0000    0.0000    0.0000 N   0  0  0  0  0  0  0  0  0  0  0  0
    0.0000    0.0000    0.0000 C   0  0  0  0  0  0  0  0  0  0  0  0
    0.0000    0.0000    0.0000 O   0  0  0  0  0  0  0  0  0  0  0  0
    0.0000    0.0000    0.0000 C   0  0  0  0  0  0  0  0  0  0  0  0
    0.0000    0.0000    0.0000 C   0  0  0  0  0  0  0  0  0  0  0  0
    0.0000    0.0000    0.0000 C   0  0  0  0  0  0  0  0  0  0  0  0
    0.0000    0.0000    0.0000 C   0  0  0  0  0  0  0  0  0  0  0  0
    0.0000    0.0000    0.0000 C   0  0  0  0  0  0  0  0  0  0  0  0
    0.0000    0.0000    0.0000 C   0  0  0  0  0  0  0  0  0  0  0  0
    0.0000    0.0000    0.0000 C   0  0  0  0  0  0  0  0  0  0  0  0
    0.0000    0.0000    0.0000 F   0  0  0  0  0  0  0  0  0  0  0  0
    0.0000    0.0000    0.0000 F   0  0  0  0  0  0  0  0  0  0  0  0
    0.0000    0.0000    0.0000 F   0  0  0  0  0  0  0  0  0  0  0  0
    0.0000    0.0000    0.0000 C   0  0  0  0  0  0  0  0  0  0  0  0
    0.0000    0.0000    0.0000 N   0  0  0  0  0  0  0  0  0  0  0  0
    0.0000    0.0000    0.0000 C   0  0  0  0  0  0  0  0  0  0  0  0
    0.0000    0.0000    0.0000 N   0  0  0  0  0  0  0  0  0  0  0  0
  1  2  1  0
  2  3  1  0
  3  4  2  0
  3  5  1  0
  5  6  2  0
  6  7  1  0
  7  8  2  0
  8  9  1  0
  9 10  1  0
 10 11  1  0
 11 12  2  0
 11 13  1  0
 13 14  2  0
 14 15  1  0
 15 16  2  0
 16 17  1  0
 17 18  2  0
 18 19  1  0
 19 20  1  0
 19 21  1  0
 19 22  1  0
  9 23  2  0
 23 24  1  0
 24 25  2  0
 25 26  1  0
 26  5  1  0
 25  7  1  0
 18 13  1  0
M  END
>  <pIC50>  (659) 
6.36

>  <ChEMBL_ID>  (659) 
CHEMBL3347602

>  <document_journal>  (659) 
MedChemComm

>  <bao_endpoint>  (659) 
BAO_0000190

>  <potential_duplicate>  (659) 
False

>  <uo_units>  (659) 
UO_0000065

>  <canonical_smiles>  (659) 
COC(=O)c1cc2cc(NC(=O)c3ccccc3C(F)(F)F)cnc2[nH]1

>  <parent_molecule_chembl_id>  (659) 
CHEMBL3347602

>  <assay_type>  (659) 
B

>  <src_id>  (659) 
1

>  <ligand_efficiency>  (659) 
{u'le': u'0.33', u'bei': u'17.5', u'sei': u'7.56', u'lle': u'3.31'}

>  <standard_flag>  (659) 
True

>  <molecule_chembl_id>  (659) 
CHEMBL3347602

>  <target_organism>  (659) 
Homo sapiens

>  <standard_units>  (659) 
nM

>  <record_id>  (659) 
2173538

>  <document_chembl_id>  (659) 
CHEMBL3390833

>  <bao_format>  (659) 
BAO_0000357

>  <data_validity_description>  (659) 
None

>  <activity_id>  (659) 
14927848

>  <standard_type>  (659) 
IC50

>  <target_chembl_id>  (659) 
CHEMBL1862

>  <data_validity_comment>  (659) 
None

>  <published_value>  (659) 
439

>  <document_year>  (659) 
2012

>  <target_pref_name>  (659) 
Tyrosine-protein kinase ABL

>  <assay_chembl_id>  (659) 
CHEMBL3391136

>  <standard_relation>  (659) 
=

>  <assay_description>  (659) 
Inhibition of Abl kinase (unknown origin)

>  <published_relation>  (659) 
=

>  <standard_value>  (659) 
439

>  <qudt_units>  (659) 
http://www.openphacts.org/units/Nanomolar

>  <target_tax_id>  (659) 
9606

>  <bao_label>  (659) 
single protein format

>  <published_units>  (659) 
nM

>  <pchembl_value>  (659) 
6.36

>  <published_type>  (659) 
IC50

>  <activity_comment>  (659) 
None

$$$$

     RDKit          

 23 25  0  0  0  0  0  0  0  0999 V2000
    0.0000    0.0000    0.0000 C   0  0  0  0  0  0  0  0  0  0  0  0
    0.0000    0.0000    0.0000 O   0  0  0  0  0  0  0  0  0  0  0  0
    0.0000    0.0000    0.0000 C   0  0  0  0  0  0  0  0  0  0  0  0
    0.0000    0.0000    0.0000 O   0  0  0  0  0  0  0  0  0  0  0  0
    0.0000    0.0000    0.0000 C   0  0  0  0  0  0  0  0  0  0  0  0
    0.0000    0.0000    0.0000 C   0  0  0  0  0  0  0  0  0  0  0  0
    0.0000    0.0000    0.0000 C   0  0  0  0  0  0  0  0  0  0  0  0
    0.0000    0.0000    0.0000 C   0  0  0  0  0  0  0  0  0  0  0  0
    0.0000    0.0000    0.0000 C   0  0  0  0  0  0  0  0  0  0  0  0
    0.0000    0.0000    0.0000 N   0  0  0  0  0  0  0  0  0  0  0  0
    0.0000    0.0000    0.0000 C   0  0  0  0  0  0  0  0  0  0  0  0
    0.0000    0.0000    0.0000 O   0  0  0  0  0  0  0  0  0  0  0  0
    0.0000    0.0000    0.0000 C   0  0  0  0  0  0  0  0  0  0  0  0
    0.0000    0.0000    0.0000 C   0  0  0  0  0  0  0  0  0  0  0  0
    0.0000    0.0000    0.0000 C   0  0  0  0  0  0  0  0  0  0  0  0
    0.0000    0.0000    0.0000 C   0  0  0  0  0  0  0  0  0  0  0  0
    0.0000    0.0000    0.0000 C   0  0  0  0  0  0  0  0  0  0  0  0
    0.0000    0.0000    0.0000 C   0  0  0  0  0  0  0  0  0  0  0  0
    0.0000    0.0000    0.0000 C   0  0  0  0  0  0  0  0  0  0  0  0
    0.0000    0.0000    0.0000 C   0  0  0  0  0  0  0  0  0  0  0  0
    0.0000    0.0000    0.0000 N   0  0  0  0  0  0  0  0  0  0  0  0
    0.0000    0.0000    0.0000 C   0  0  0  0  0  0  0  0  0  0  0  0
    0.0000    0.0000    0.0000 N   0  0  0  0  0  0  0  0  0  0  0  0
  1  2  1  0
  2  3  1  0
  3  4  2  0
  3  5  1  0
  5  6  2  0
  6  7  1  0
  7  8  2  0
  8  9  1  0
  9 10  1  0
 10 11  1  0
 11 12  2  0
 11 13  1  0
 13 14  2  0
 14 15  1  0
 15 16  2  0
 16 17  1  0
 17 18  2  0
 18 19  1  0
  9 20  2  0
 20 21  1  0
 21 22  2  0
 22 23  1  0
 23  5  1  0
 22  7  1  0
 18 13  1  0
M  END
>  <pIC50>  (660) 
7.52

>  <ChEMBL_ID>  (660) 
CHEMBL3347601

>  <document_journal>  (660) 
MedChemComm

>  <bao_endpoint>  (660) 
BAO_0000190

>  <potential_duplicate>  (660) 
False

>  <uo_units>  (660) 
UO_0000065

>  <canonical_smiles>  (660) 
COC(=O)c1cc2cc(NC(=O)c3ccccc3C)cnc2[nH]1

>  <parent_molecule_chembl_id>  (660) 
CHEMBL3347601

>  <assay_type>  (660) 
B

>  <src_id>  (660) 
1

>  <ligand_efficiency>  (660) 
{u'le': u'0.45', u'bei': u'24.32', u'sei': u'8.95', u'lle': u'4.93'}

>  <standard_flag>  (660) 
True

>  <molecule_chembl_id>  (660) 
CHEMBL3347601

>  <target_organism>  (660) 
Homo sapiens

>  <standard_units>  (660) 
nM

>  <record_id>  (660) 
2173537

>  <document_chembl_id>  (660) 
CHEMBL3390833

>  <bao_format>  (660) 
BAO_0000357

>  <data_validity_description>  (660) 
None

>  <activity_id>  (660) 
14927849

>  <standard_type>  (660) 
IC50

>  <target_chembl_id>  (660) 
CHEMBL1862

>  <data_validity_comment>  (660) 
None

>  <published_value>  (660) 
30

>  <document_year>  (660) 
2012

>  <target_pref_name>  (660) 
Tyrosine-protein kinase ABL

>  <assay_chembl_id>  (660) 
CHEMBL3391136

>  <standard_relation>  (660) 
=

>  <assay_description>  (660) 
Inhibition of Abl kinase (unknown origin)

>  <published_relation>  (660) 
=

>  <standard_value>  (660) 
30

>  <qudt_units>  (660) 
http://www.openphacts.org/units/Nanomolar

>  <target_tax_id>  (660) 
9606

>  <bao_label>  (660) 
single protein format

>  <published_units>  (660) 
nM

>  <pchembl_value>  (660) 
7.52

>  <published_type>  (660) 
IC50

>  <activity_comment>  (660) 
None

$$$$

     RDKit          

 21 23  0  0  0  0  0  0  0  0999 V2000
    0.0000    0.0000    0.0000 O   0  0  0  0  0  0  0  0  0  0  0  0
    0.0000    0.0000    0.0000 C   0  0  0  0  0  0  0  0  0  0  0  0
    0.0000    0.0000    0.0000 C   0  0  0  0  0  0  0  0  0  0  0  0
    0.0000    0.0000    0.0000 C   0  0  0  0  0  0  0  0  0  0  0  0
    0.0000    0.0000    0.0000 C   0  0  0  0  0  0  0  0  0  0  0  0
    0.0000    0.0000    0.0000 C   0  0  0  0  0  0  0  0  0  0  0  0
    0.0000    0.0000    0.0000 C   0  0  0  0  0  0  0  0  0  0  0  0
    0.0000    0.0000    0.0000 N   0  0  0  0  0  0  0  0  0  0  0  0
    0.0000    0.0000    0.0000 C   0  0  0  0  0  0  0  0  0  0  0  0
    0.0000    0.0000    0.0000 O   0  0  0  0  0  0  0  0  0  0  0  0
    0.0000    0.0000    0.0000 C   0  0  0  0  0  0  0  0  0  0  0  0
    0.0000    0.0000    0.0000 C   0  0  0  0  0  0  0  0  0  0  0  0
    0.0000    0.0000    0.0000 C   0  0  0  0  0  0  0  0  0  0  0  0
    0.0000    0.0000    0.0000 C   0  0  0  0  0  0  0  0  0  0  0  0
    0.0000    0.0000    0.0000 C   0  0  0  0  0  0  0  0  0  0  0  0
    0.0000    0.0000    0.0000 C   0  0  0  0  0  0  0  0  0  0  0  0
    0.0000    0.0000    0.0000 Br  0  0  0  0  0  0  0  0  0  0  0  0
    0.0000    0.0000    0.0000 C   0  0  0  0  0  0  0  0  0  0  0  0
    0.0000    0.0000    0.0000 N   0  0  0  0  0  0  0  0  0  0  0  0
    0.0000    0.0000    0.0000 C   0  0  0  0  0  0  0  0  0  0  0  0
    0.0000    0.0000    0.0000 N   0  0  0  0  0  0  0  0  0  0  0  0
  1  2  1  0
  2  3  1  0
  3  4  2  0
  4  5  1  0
  5  6  2  0
  6  7  1  0
  7  8  1  0
  8  9  1  0
  9 10  2  0
  9 11  1  0
 11 12  2  0
 12 13  1  0
 13 14  2  0
 14 15  1  0
 15 16  2  0
 16 17  1  0
  7 18  2  0
 18 19  1  0
 19 20  2  0
 20 21  1  0
 21  3  1  0
 20  5  1  0
 16 11  1  0
M  END
>  <pIC50>  (661) 
5.21

>  <ChEMBL_ID>  (661) 
CHEMBL3347651

>  <document_journal>  (661) 
MedChemComm

>  <bao_endpoint>  (661) 
BAO_0000190

>  <potential_duplicate>  (661) 
False

>  <uo_units>  (661) 
UO_0000065

>  <canonical_smiles>  (661) 
OCc1cc2cc(NC(=O)c3ccccc3Br)cnc2[nH]1

>  <parent_molecule_chembl_id>  (661) 
CHEMBL3347651

>  <assay_type>  (661) 
B

>  <src_id>  (661) 
1

>  <ligand_efficiency>  (661) 
{u'le': u'0.34', u'bei': u'15.04', u'sei': u'6.68', u'lle': u'3.03'}

>  <standard_flag>  (661) 
True

>  <molecule_chembl_id>  (661) 
CHEMBL3347651

>  <target_organism>  (661) 
Homo sapiens

>  <standard_units>  (661) 
nM

>  <record_id>  (661) 
2173621

>  <document_chembl_id>  (661) 
CHEMBL3390833

>  <bao_format>  (661) 
BAO_0000357

>  <data_validity_description>  (661) 
None

>  <activity_id>  (661) 
14927852

>  <standard_type>  (661) 
IC50

>  <target_chembl_id>  (661) 
CHEMBL1862

>  <data_validity_comment>  (661) 
None

>  <published_value>  (661) 
6200

>  <document_year>  (661) 
2012

>  <target_pref_name>  (661) 
Tyrosine-protein kinase ABL

>  <assay_chembl_id>  (661) 
CHEMBL3391136

>  <standard_relation>  (661) 
=

>  <assay_description>  (661) 
Inhibition of Abl kinase (unknown origin)

>  <published_relation>  (661) 
=

>  <standard_value>  (661) 
6200

>  <qudt_units>  (661) 
http://www.openphacts.org/units/Nanomolar

>  <target_tax_id>  (661) 
9606

>  <bao_label>  (661) 
single protein format

>  <published_units>  (661) 
nM

>  <pchembl_value>  (661) 
5.21

>  <published_type>  (661) 
IC50

>  <activity_comment>  (661) 
None

$$$$

     RDKit          

 22 24  0  0  0  0  0  0  0  0999 V2000
    0.0000    0.0000    0.0000 C   0  0  0  0  0  0  0  0  0  0  0  0
    0.0000    0.0000    0.0000 O   0  0  0  0  0  0  0  0  0  0  0  0
    0.0000    0.0000    0.0000 C   0  0  0  0  0  0  0  0  0  0  0  0
    0.0000    0.0000    0.0000 C   0  0  0  0  0  0  0  0  0  0  0  0
    0.0000    0.0000    0.0000 C   0  0  0  0  0  0  0  0  0  0  0  0
    0.0000    0.0000    0.0000 C   0  0  0  0  0  0  0  0  0  0  0  0
    0.0000    0.0000    0.0000 C   0  0  0  0  0  0  0  0  0  0  0  0
    0.0000    0.0000    0.0000 C   0  0  0  0  0  0  0  0  0  0  0  0
    0.0000    0.0000    0.0000 N   0  0  0  0  0  0  0  0  0  0  0  0
    0.0000    0.0000    0.0000 C   0  0  0  0  0  0  0  0  0  0  0  0
    0.0000    0.0000    0.0000 O   0  0  0  0  0  0  0  0  0  0  0  0
    0.0000    0.0000    0.0000 C   0  0  0  0  0  0  0  0  0  0  0  0
    0.0000    0.0000    0.0000 C   0  0  0  0  0  0  0  0  0  0  0  0
    0.0000    0.0000    0.0000 C   0  0  0  0  0  0  0  0  0  0  0  0
    0.0000    0.0000    0.0000 C   0  0  0  0  0  0  0  0  0  0  0  0
    0.0000    0.0000    0.0000 C   0  0  0  0  0  0  0  0  0  0  0  0
    0.0000    0.0000    0.0000 C   0  0  0  0  0  0  0  0  0  0  0  0
    0.0000    0.0000    0.0000 Br  0  0  0  0  0  0  0  0  0  0  0  0
    0.0000    0.0000    0.0000 C   0  0  0  0  0  0  0  0  0  0  0  0
    0.0000    0.0000    0.0000 N   0  0  0  0  0  0  0  0  0  0  0  0
    0.0000    0.0000    0.0000 C   0  0  0  0  0  0  0  0  0  0  0  0
    0.0000    0.0000    0.0000 N   0  0  0  0  0  0  0  0  0  0  0  0
  1  2  1  0
  2  3  1  0
  3  4  1  0
  4  5  2  0
  5  6  1  0
  6  7  2  0
  7  8  1  0
  8  9  1  0
  9 10  1  0
 10 11  2  0
 10 12  1  0
 12 13  2  0
 13 14  1  0
 14 15  2  0
 15 16  1  0
 16 17  2  0
 17 18  1  0
  8 19  2  0
 19 20  1  0
 20 21  2  0
 21 22  1  0
 22  4  1  0
 21  6  1  0
 17 12  1  0
M  END
>  <pIC50>  (662) 
5.64

>  <ChEMBL_ID>  (662) 
CHEMBL3347650

>  <document_journal>  (662) 
MedChemComm

>  <bao_endpoint>  (662) 
BAO_0000190

>  <potential_duplicate>  (662) 
False

>  <uo_units>  (662) 
UO_0000065

>  <canonical_smiles>  (662) 
COCc1cc2cc(NC(=O)c3ccccc3Br)cnc2[nH]1

>  <parent_molecule_chembl_id>  (662) 
CHEMBL3347650

>  <assay_type>  (662) 
B

>  <src_id>  (662) 
1

>  <ligand_efficiency>  (662) 
{u'le': u'0.35', u'bei': u'15.65', u'sei': u'8.42', u'lle': u'3.05'}

>  <standard_flag>  (662) 
True

>  <molecule_chembl_id>  (662) 
CHEMBL3347650

>  <target_organism>  (662) 
Homo sapiens

>  <standard_units>  (662) 
nM

>  <record_id>  (662) 
2173620

>  <document_chembl_id>  (662) 
CHEMBL3390833

>  <bao_format>  (662) 
BAO_0000357

>  <data_validity_description>  (662) 
None

>  <activity_id>  (662) 
14927853

>  <standard_type>  (662) 
IC50

>  <target_chembl_id>  (662) 
CHEMBL1862

>  <data_validity_comment>  (662) 
None

>  <published_value>  (662) 
2300

>  <document_year>  (662) 
2012

>  <target_pref_name>  (662) 
Tyrosine-protein kinase ABL

>  <assay_chembl_id>  (662) 
CHEMBL3391136

>  <standard_relation>  (662) 
=

>  <assay_description>  (662) 
Inhibition of Abl kinase (unknown origin)

>  <published_relation>  (662) 
=

>  <standard_value>  (662) 
2300

>  <qudt_units>  (662) 
http://www.openphacts.org/units/Nanomolar

>  <target_tax_id>  (662) 
9606

>  <bao_label>  (662) 
single protein format

>  <published_units>  (662) 
nM

>  <pchembl_value>  (662) 
5.64

>  <published_type>  (662) 
IC50

>  <activity_comment>  (662) 
None

$$$$

     RDKit          

 23 25  0  0  0  0  0  0  0  0999 V2000
    0.0000    0.0000    0.0000 C   0  0  0  0  0  0  0  0  0  0  0  0
    0.0000    0.0000    0.0000 O   0  0  0  0  0  0  0  0  0  0  0  0
    0.0000    0.0000    0.0000 C   0  0  0  0  0  0  0  0  0  0  0  0
    0.0000    0.0000    0.0000 O   0  0  0  0  0  0  0  0  0  0  0  0
    0.0000    0.0000    0.0000 C   0  0  0  0  0  0  0  0  0  0  0  0
    0.0000    0.0000    0.0000 C   0  0  0  0  0  0  0  0  0  0  0  0
    0.0000    0.0000    0.0000 C   0  0  0  0  0  0  0  0  0  0  0  0
    0.0000    0.0000    0.0000 C   0  0  0  0  0  0  0  0  0  0  0  0
    0.0000    0.0000    0.0000 C   0  0  0  0  0  0  0  0  0  0  0  0
    0.0000    0.0000    0.0000 N   0  0  0  0  0  0  0  0  0  0  0  0
    0.0000    0.0000    0.0000 C   0  0  0  0  0  0  0  0  0  0  0  0
    0.0000    0.0000    0.0000 O   0  0  0  0  0  0  0  0  0  0  0  0
    0.0000    0.0000    0.0000 C   0  0  0  0  0  0  0  0  0  0  0  0
    0.0000    0.0000    0.0000 C   0  0  0  0  0  0  0  0  0  0  0  0
    0.0000    0.0000    0.0000 C   0  0  0  0  0  0  0  0  0  0  0  0
    0.0000    0.0000    0.0000 C   0  0  0  0  0  0  0  0  0  0  0  0
    0.0000    0.0000    0.0000 C   0  0  0  0  0  0  0  0  0  0  0  0
    0.0000    0.0000    0.0000 C   0  0  0  0  0  0  0  0  0  0  0  0
    0.0000    0.0000    0.0000 Br  0  0  0  0  0  0  0  0  0  0  0  0
    0.0000    0.0000    0.0000 C   0  0  0  0  0  0  0  0  0  0  0  0
    0.0000    0.0000    0.0000 N   0  0  0  0  0  0  0  0  0  0  0  0
    0.0000    0.0000    0.0000 C   0  0  0  0  0  0  0  0  0  0  0  0
    0.0000    0.0000    0.0000 N   0  0  0  0  0  0  0  0  0  0  0  0
  1  2  1  0
  2  3  1  0
  3  4  2  0
  3  5  1  0
  5  6  2  0
  6  7  1  0
  7  8  2  0
  8  9  1  0
  9 10  1  0
 10 11  1  0
 11 12  2  0
 11 13  1  0
 13 14  2  0
 14 15  1  0
 15 16  2  0
 16 17  1  0
 17 18  2  0
 18 19  1  0
  9 20  2  0
 20 21  1  0
 21 22  2  0
 22 23  1  0
 23  5  1  0
 22  7  1  0
 18 13  1  0
M  END
>  <pIC50>  (663) 
6.845

>  <ChEMBL_ID>  (663) 
CHEMBL3347636

>  <document_journal>  (663) 
MedChemComm

>  <bao_endpoint>  (663) 
BAO_0000190

>  <potential_duplicate>  (663) 
False

>  <uo_units>  (663) 
UO_0000065

>  <canonical_smiles>  (663) 
COC(=O)c1cc2cc(NC(=O)c3ccccc3Br)cnc2[nH]1

>  <parent_molecule_chembl_id>  (663) 
CHEMBL3347636

>  <assay_type>  (663) 
B

>  <src_id>  (663) 
1

>  <ligand_efficiency>  (663) 
{u'le': u'0.38', u'bei': u'16.94', u'sei': u'7.54', u'lle': u'3.49'}

>  <standard_flag>  (663) 
True

>  <molecule_chembl_id>  (663) 
CHEMBL3347636

>  <target_organism>  (663) 
Homo sapiens

>  <standard_units>  (663) 
nM

>  <record_id>  (663) 
2173601

>  <document_chembl_id>  (663) 
CHEMBL3390833

>  <bao_format>  (663) 
BAO_0000357

>  <data_validity_description>  (663) 
None

>  <activity_id>  (663) 
14927854

>  <standard_type>  (663) 
IC50

>  <target_chembl_id>  (663) 
CHEMBL1862

>  <data_validity_comment>  (663) 
None

>  <published_value>  (663) 
460

>  <document_year>  (663) 
2012

>  <target_pref_name>  (663) 
Tyrosine-protein kinase ABL

>  <assay_chembl_id>  (663) 
CHEMBL3391136

>  <standard_relation>  (663) 
=

>  <assay_description>  (663) 
Inhibition of Abl kinase (unknown origin)

>  <published_relation>  (663) 
=

>  <standard_value>  (663) 
460

>  <qudt_units>  (663) 
http://www.openphacts.org/units/Nanomolar

>  <target_tax_id>  (663) 
9606

>  <bao_label>  (663) 
single protein format

>  <published_units>  (663) 
nM

>  <pchembl_value>  (663) 
6.34

>  <published_type>  (663) 
IC50

>  <activity_comment>  (663) 
None

$$$$

     RDKit          

 25 28  0  0  0  0  0  0  0  0999 V2000
    0.0000    0.0000    0.0000 Br  0  0  0  0  0  0  0  0  0  0  0  0
    0.0000    0.0000    0.0000 C   0  0  0  0  0  0  0  0  0  0  0  0
    0.0000    0.0000    0.0000 C   0  0  0  0  0  0  0  0  0  0  0  0
    0.0000    0.0000    0.0000 C   0  0  0  0  0  0  0  0  0  0  0  0
    0.0000    0.0000    0.0000 C   0  0  0  0  0  0  0  0  0  0  0  0
    0.0000    0.0000    0.0000 C   0  0  0  0  0  0  0  0  0  0  0  0
    0.0000    0.0000    0.0000 C   0  0  0  0  0  0  0  0  0  0  0  0
    0.0000    0.0000    0.0000 C   0  0  0  0  0  0  0  0  0  0  0  0
    0.0000    0.0000    0.0000 O   0  0  0  0  0  0  0  0  0  0  0  0
    0.0000    0.0000    0.0000 N   0  0  0  0  0  0  0  0  0  0  0  0
    0.0000    0.0000    0.0000 C   0  0  0  0  0  0  0  0  0  0  0  0
    0.0000    0.0000    0.0000 C   0  0  0  0  0  0  0  0  0  0  0  0
    0.0000    0.0000    0.0000 N   0  0  0  0  0  0  0  0  0  0  0  0
    0.0000    0.0000    0.0000 C   0  0  0  0  0  0  0  0  0  0  0  0
    0.0000    0.0000    0.0000 N   0  0  0  0  0  0  0  0  0  0  0  0
    0.0000    0.0000    0.0000 C   0  0  0  0  0  0  0  0  0  0  0  0
    0.0000    0.0000    0.0000 C   0  0  0  0  0  0  0  0  0  0  0  0
    0.0000    0.0000    0.0000 C   0  0  0  0  0  0  0  0  0  0  0  0
    0.0000    0.0000    0.0000 C   0  0  0  0  0  0  0  0  0  0  0  0
    0.0000    0.0000    0.0000 C   0  0  0  0  0  0  0  0  0  0  0  0
    0.0000    0.0000    0.0000 C   0  0  0  0  0  0  0  0  0  0  0  0
    0.0000    0.0000    0.0000 N   0  0  0  0  0  0  0  0  0  0  0  0
    0.0000    0.0000    0.0000 C   0  0  0  0  0  0  0  0  0  0  0  0
    0.0000    0.0000    0.0000 C   0  0  0  0  0  0  0  0  0  0  0  0
    0.0000    0.0000    0.0000 C   0  0  0  0  0  0  0  0  0  0  0  0
  1  2  1  0
  2  3  2  0
  3  4  1  0
  4  5  2  0
  5  6  1  0
  6  7  2  0
  7  8  1  0
  8  9  2  0
  8 10  1  0
 10 11  1  0
 11 12  2  0
 12 13  1  0
 13 14  2  0
 14 15  1  0
 15 16  1  0
 16 17  1  0
 17 18  1  0
 18 19  2  0
 19 20  1  0
 20 21  2  0
 21 22  1  0
 16 23  2  0
 23 24  1  0
 24 25  2  0
  7  2  1  0
 25 11  1  0
 24 14  1  0
 22 18  1  0
M  END
>  <pIC50>  (664) 
6.16

>  <ChEMBL_ID>  (664) 
CHEMBL3347621

>  <document_journal>  (664) 
MedChemComm

>  <bao_endpoint>  (664) 
BAO_0000190

>  <potential_duplicate>  (664) 
False

>  <uo_units>  (664) 
UO_0000065

>  <canonical_smiles>  (664) 
Brc1ccccc1C(=O)Nc2cnc3[nH]c(Cc4ccc[nH]4)cc3c2

>  <parent_molecule_chembl_id>  (664) 
CHEMBL3347621

>  <assay_type>  (664) 
B

>  <src_id>  (664) 
1

>  <ligand_efficiency>  (664) 
{u'le': u'0.34', u'bei': u'15.65', u'sei': u'8.41', u'lle': u'2.25'}

>  <standard_flag>  (664) 
True

>  <molecule_chembl_id>  (664) 
CHEMBL3347621

>  <target_organism>  (664) 
Homo sapiens

>  <standard_units>  (664) 
nM

>  <record_id>  (664) 
2173572

>  <document_chembl_id>  (664) 
CHEMBL3390833

>  <bao_format>  (664) 
BAO_0000357

>  <data_validity_description>  (664) 
None

>  <activity_id>  (664) 
14927855

>  <standard_type>  (664) 
IC50

>  <target_chembl_id>  (664) 
CHEMBL1862

>  <data_validity_comment>  (664) 
None

>  <published_value>  (664) 
654

>  <document_year>  (664) 
2012

>  <target_pref_name>  (664) 
Tyrosine-protein kinase ABL

>  <assay_chembl_id>  (664) 
CHEMBL3391136

>  <standard_relation>  (664) 
=

>  <assay_description>  (664) 
Inhibition of Abl kinase (unknown origin)

>  <published_relation>  (664) 
=

>  <standard_value>  (664) 
654

>  <qudt_units>  (664) 
http://www.openphacts.org/units/Nanomolar

>  <target_tax_id>  (664) 
9606

>  <bao_label>  (664) 
single protein format

>  <published_units>  (664) 
nM

>  <pchembl_value>  (664) 
6.18

>  <published_type>  (664) 
IC50

>  <activity_comment>  (664) 
None

$$$$

     RDKit          

 28 30  0  0  0  0  0  0  0  0999 V2000
    0.0000    0.0000    0.0000 C   0  0  0  0  0  0  0  0  0  0  0  0
    0.0000    0.0000    0.0000 N   0  0  0  0  0  0  0  0  0  0  0  0
    0.0000    0.0000    0.0000 C   0  0  0  0  0  0  0  0  0  0  0  0
    0.0000    0.0000    0.0000 C   0  0  0  0  0  0  0  0  0  0  0  0
    0.0000    0.0000    0.0000 C   0  0  0  0  0  0  0  0  0  0  0  0
    0.0000    0.0000    0.0000 C   0  0  0  0  0  0  0  0  0  0  0  0
    0.0000    0.0000    0.0000 N   0  0  0  0  0  0  0  0  0  0  0  0
    0.0000    0.0000    0.0000 C   0  0  0  0  0  0  0  0  0  0  0  0
    0.0000    0.0000    0.0000 O   0  0  0  0  0  0  0  0  0  0  0  0
    0.0000    0.0000    0.0000 C   0  0  0  0  0  0  0  0  0  0  0  0
    0.0000    0.0000    0.0000 C   0  0  0  0  0  0  0  0  0  0  0  0
    0.0000    0.0000    0.0000 C   0  0  0  0  0  0  0  0  0  0  0  0
    0.0000    0.0000    0.0000 C   0  0  0  0  0  0  0  0  0  0  0  0
    0.0000    0.0000    0.0000 C   0  0  0  0  0  0  0  0  0  0  0  0
    0.0000    0.0000    0.0000 N   0  0  0  0  0  0  0  0  0  0  0  0
    0.0000    0.0000    0.0000 C   0  0  0  0  0  0  0  0  0  0  0  0
    0.0000    0.0000    0.0000 O   0  0  0  0  0  0  0  0  0  0  0  0
    0.0000    0.0000    0.0000 C   0  0  0  0  0  0  0  0  0  0  0  0
    0.0000    0.0000    0.0000 C   0  0  0  0  0  0  0  0  0  0  0  0
    0.0000    0.0000    0.0000 C   0  0  0  0  0  0  0  0  0  0  0  0
    0.0000    0.0000    0.0000 C   0  0  0  0  0  0  0  0  0  0  0  0
    0.0000    0.0000    0.0000 C   0  0  0  0  0  0  0  0  0  0  0  0
    0.0000    0.0000    0.0000 C   0  0  0  0  0  0  0  0  0  0  0  0
    0.0000    0.0000    0.0000 Br  0  0  0  0  0  0  0  0  0  0  0  0
    0.0000    0.0000    0.0000 C   0  0  0  0  0  0  0  0  0  0  0  0
    0.0000    0.0000    0.0000 N   0  0  0  0  0  0  0  0  0  0  0  0
    0.0000    0.0000    0.0000 C   0  0  0  0  0  0  0  0  0  0  0  0
    0.0000    0.0000    0.0000 N   0  0  0  0  0  0  0  0  0  0  0  0
  1  2  1  0
  2  3  1  0
  2  4  1  0
  4  5  1  0
  5  6  1  0
  6  7  1  0
  7  8  1  0
  8  9  2  0
  8 10  1  0
 10 11  2  0
 11 12  1  0
 12 13  2  0
 13 14  1  0
 14 15  1  0
 15 16  1  0
 16 17  2  0
 16 18  1  0
 18 19  2  0
 19 20  1  0
 20 21  2  0
 21 22  1  0
 22 23  2  0
 23 24  1  0
 14 25  2  0
 25 26  1  0
 26 27  2  0
 27 28  1  0
 28 10  1  0
 27 12  1  0
 23 18  1  0
M  END
>  <pIC50>  (665) 
6.8775

>  <ChEMBL_ID>  (665) 
CHEMBL3347647

>  <document_journal>  (665) 
MedChemComm

>  <bao_endpoint>  (665) 
BAO_0000190

>  <potential_duplicate>  (665) 
False

>  <uo_units>  (665) 
UO_0000065

>  <canonical_smiles>  (665) 
CN(C)CCCNC(=O)c1cc2cc(NC(=O)c3ccccc3Br)cnc2[nH]1

>  <parent_molecule_chembl_id>  (665) 
CHEMBL3347647

>  <assay_type>  (665) 
B

>  <src_id>  (665) 
1

>  <ligand_efficiency>  (665) 
{u'le': u'0.3', u'bei': u'13.84', u'sei': u'6.82', u'lle': u'3.74'}

>  <standard_flag>  (665) 
True

>  <molecule_chembl_id>  (665) 
CHEMBL3347647

>  <target_organism>  (665) 
Homo sapiens

>  <standard_units>  (665) 
nM

>  <record_id>  (665) 
2173617

>  <document_chembl_id>  (665) 
CHEMBL3390833

>  <bao_format>  (665) 
BAO_0000357

>  <data_validity_description>  (665) 
None

>  <activity_id>  (665) 
14927856

>  <standard_type>  (665) 
IC50

>  <target_chembl_id>  (665) 
CHEMBL1862

>  <data_validity_comment>  (665) 
None

>  <published_value>  (665) 
709

>  <document_year>  (665) 
2012

>  <target_pref_name>  (665) 
Tyrosine-protein kinase ABL

>  <assay_chembl_id>  (665) 
CHEMBL3391136

>  <standard_relation>  (665) 
=

>  <assay_description>  (665) 
Inhibition of Abl kinase (unknown origin)

>  <published_relation>  (665) 
=

>  <standard_value>  (665) 
709

>  <qudt_units>  (665) 
http://www.openphacts.org/units/Nanomolar

>  <target_tax_id>  (665) 
9606

>  <bao_label>  (665) 
single protein format

>  <published_units>  (665) 
nM

>  <pchembl_value>  (665) 
6.15

>  <published_type>  (665) 
IC50

>  <activity_comment>  (665) 
None

$$$$

     RDKit          

 27 29  0  0  0  0  0  0  0  0999 V2000
    0.0000    0.0000    0.0000 C   0  0  0  0  0  0  0  0  0  0  0  0
    0.0000    0.0000    0.0000 N   0  0  0  0  0  0  0  0  0  0  0  0
    0.0000    0.0000    0.0000 C   0  0  0  0  0  0  0  0  0  0  0  0
    0.0000    0.0000    0.0000 C   0  0  0  0  0  0  0  0  0  0  0  0
    0.0000    0.0000    0.0000 C   0  0  0  0  0  0  0  0  0  0  0  0
    0.0000    0.0000    0.0000 C   0  0  0  0  0  0  0  0  0  0  0  0
    0.0000    0.0000    0.0000 C   0  0  0  0  0  0  0  0  0  0  0  0
    0.0000    0.0000    0.0000 C   0  0  0  0  0  0  0  0  0  0  0  0
    0.0000    0.0000    0.0000 C   0  0  0  0  0  0  0  0  0  0  0  0
    0.0000    0.0000    0.0000 C   0  0  0  0  0  0  0  0  0  0  0  0
    0.0000    0.0000    0.0000 O   0  0  0  0  0  0  0  0  0  0  0  0
    0.0000    0.0000    0.0000 C   0  0  0  0  0  0  0  0  0  0  0  0
    0.0000    0.0000    0.0000 C   0  0  0  0  0  0  0  0  0  0  0  0
    0.0000    0.0000    0.0000 C   0  0  0  0  0  0  0  0  0  0  0  0
    0.0000    0.0000    0.0000 C   0  0  0  0  0  0  0  0  0  0  0  0
    0.0000    0.0000    0.0000 C   0  0  0  0  0  0  0  0  0  0  0  0
    0.0000    0.0000    0.0000 C   0  0  0  0  0  0  0  0  0  0  0  0
    0.0000    0.0000    0.0000 S   0  0  0  0  0  0  0  0  0  0  0  0
    0.0000    0.0000    0.0000 O   0  0  0  0  0  0  0  0  0  0  0  0
    0.0000    0.0000    0.0000 O   0  0  0  0  0  0  0  0  0  0  0  0
    0.0000    0.0000    0.0000 N   0  0  0  0  0  0  0  0  0  0  0  0
    0.0000    0.0000    0.0000 C   0  0  0  0  0  0  0  0  0  0  0  0
    0.0000    0.0000    0.0000 C   0  0  0  0  0  0  0  0  0  0  0  0
    0.0000    0.0000    0.0000 C   0  0  0  0  0  0  0  0  0  0  0  0
    0.0000    0.0000    0.0000 C   0  0  0  0  0  0  0  0  0  0  0  0
    0.0000    0.0000    0.0000 C   0  0  0  0  0  0  0  0  0  0  0  0
    0.0000    0.0000    0.0000 C   0  0  0  0  0  0  0  0  0  0  0  0
  1  2  1  0
  2  3  1  0
  3  4  1  0
  4  5  2  0
  5  6  1  0
  6  7  2  0
  7  8  1  0
  8  9  2  0
  2 10  1  0
 10 11  2  0
 10 12  1  0
 12 13  2  0
 13 14  1  0
 14 15  2  0
 15 16  1  0
 16 17  2  0
 15 18  1  0
 18 19  2  0
 18 20  2  0
 18 21  1  0
 21 22  1  0
 22 23  2  0
 23 24  1  0
 24 25  2  0
 25 26  1  0
 26 27  2  0
  9  4  1  0
 17 12  1  0
 27 22  1  0
M  END
>  <pIC50>  (666) 
5.25

>  <ChEMBL_ID>  (666) 
CHEMBL3355482

>  <document_journal>  (666) 
ACS Med. Chem. Lett.

>  <bao_endpoint>  (666) 
BAO_0000190

>  <potential_duplicate>  (666) 
False

>  <uo_units>  (666) 
UO_0000065

>  <canonical_smiles>  (666) 
CN(Cc1ccccc1)C(=O)c2ccc(cc2)S(=O)(=O)Nc3ccccc3

>  <parent_molecule_chembl_id>  (666) 
CHEMBL3355482

>  <assay_type>  (666) 
B

>  <src_id>  (666) 
1

>  <ligand_efficiency>  (666) 
{u'le': u'0.27', u'bei': u'13.8', u'sei': u'7.02', u'lle': u'1.93'}

>  <standard_flag>  (666) 
True

>  <molecule_chembl_id>  (666) 
CHEMBL3355482

>  <target_organism>  (666) 
Homo sapiens

>  <standard_units>  (666) 
nM

>  <record_id>  (666) 
2250218

>  <document_chembl_id>  (666) 
CHEMBL3351882

>  <bao_format>  (666) 
BAO_0000357

>  <data_validity_description>  (666) 
None

>  <activity_id>  (666) 
14979424

>  <standard_type>  (666) 
IC50

>  <target_chembl_id>  (666) 
CHEMBL1862

>  <data_validity_comment>  (666) 
None

>  <published_value>  (666) 
5.6

>  <document_year>  (666) 
2015

>  <target_pref_name>  (666) 
Tyrosine-protein kinase ABL

>  <assay_chembl_id>  (666) 
CHEMBL3372974

>  <standard_relation>  (666) 
=

>  <assay_description>  (666) 
Inhibition of Abl (unknown origin) in presence of 1 mM ATP

>  <published_relation>  (666) 
=

>  <standard_value>  (666) 
5600

>  <qudt_units>  (666) 
http://www.openphacts.org/units/Nanomolar

>  <target_tax_id>  (666) 
9606

>  <bao_label>  (666) 
single protein format

>  <published_units>  (666) 
uM

>  <pchembl_value>  (666) 
5.25

>  <published_type>  (666) 
IC50

>  <activity_comment>  (666) 
None

$$$$

     RDKit          

 24 26  0  0  0  0  0  0  0  0999 V2000
    0.0000    0.0000    0.0000 C   0  0  0  0  0  0  0  0  0  0  0  0
    0.0000    0.0000    0.0000 C   0  0  0  0  0  0  0  0  0  0  0  0
    0.0000    0.0000    0.0000 N   0  0  0  0  0  0  0  0  0  0  0  0
    0.0000    0.0000    0.0000 C   0  0  0  0  0  0  0  0  0  0  0  0
    0.0000    0.0000    0.0000 O   0  0  0  0  0  0  0  0  0  0  0  0
    0.0000    0.0000    0.0000 N   0  0  0  0  0  0  0  0  0  0  0  0
    0.0000    0.0000    0.0000 C   0  0  0  0  0  0  0  0  0  0  0  0
    0.0000    0.0000    0.0000 C   0  0  0  0  0  0  0  0  0  0  0  0
    0.0000    0.0000    0.0000 C   0  0  0  0  0  0  0  0  0  0  0  0
    0.0000    0.0000    0.0000 C   0  0  0  0  0  0  0  0  0  0  0  0
    0.0000    0.0000    0.0000 N   0  0  0  0  0  0  0  0  0  0  0  0
    0.0000    0.0000    0.0000 C   0  0  0  0  0  0  0  0  0  0  0  0
    0.0000    0.0000    0.0000 C   0  0  0  0  0  0  0  0  0  0  0  0
    0.0000    0.0000    0.0000 C   0  0  0  0  0  0  0  0  0  0  0  0
    0.0000    0.0000    0.0000 C   0  0  0  0  0  0  0  0  0  0  0  0
    0.0000    0.0000    0.0000 N   0  0  0  0  0  0  0  0  0  0  0  0
    0.0000    0.0000    0.0000 C   0  0  0  0  0  0  0  0  0  0  0  0
    0.0000    0.0000    0.0000 C   0  0  0  0  0  0  0  0  0  0  0  0
    0.0000    0.0000    0.0000 C   0  0  0  0  0  0  0  0  0  0  0  0
    0.0000    0.0000    0.0000 C   0  0  0  0  0  0  0  0  0  0  0  0
    0.0000    0.0000    0.0000 O   0  0  0  0  0  0  0  0  0  0  0  0
    0.0000    0.0000    0.0000 C   0  0  0  0  0  0  0  0  0  0  0  0
    0.0000    0.0000    0.0000 C   0  0  0  0  0  0  0  0  0  0  0  0
    0.0000    0.0000    0.0000 C   0  0  0  0  0  0  0  0  0  0  0  0
  1  2  1  0
  2  3  1  0
  3  4  1  0
  4  5  2  0
  4  6  1  0
  6  7  1  0
  7  8  2  0
  8  9  1  0
  9 10  2  0
 10 11  1  0
 11 12  2  0
 12 13  1  0
 13 14  2  0
 14 15  1  0
 15 16  2  0
 13 17  1  0
 17 18  2  0
 18 19  1  0
 19 20  2  0
 20 21  1  0
 21 22  1  0
 20 23  1  0
 23 24  2  0
 16  7  1  0
 15 10  1  0
 24 17  1  0
M  END
>  <pIC50>  (667) 
4.68

>  <ChEMBL_ID>  (667) 
CHEMBL3318023

>  <document_journal>  (667) 
Bioorg. Med. Chem. Lett.

>  <bao_endpoint>  (667) 
BAO_0000190

>  <potential_duplicate>  (667) 
False

>  <uo_units>  (667) 
UO_0000065

>  <canonical_smiles>  (667) 
CCNC(=O)Nc1ccc2ncc(cc2n1)c3ccc(OC)cc3

>  <parent_molecule_chembl_id>  (667) 
CHEMBL3318023

>  <assay_type>  (667) 
B

>  <src_id>  (667) 
1

>  <ligand_efficiency>  (667) 
{u'le': u'0.27', u'bei': u'14.52', u'sei': u'6.15', u'lle': u'1.88'}

>  <standard_flag>  (667) 
True

>  <molecule_chembl_id>  (667) 
CHEMBL3318023

>  <target_organism>  (667) 
Homo sapiens

>  <standard_units>  (667) 
nM

>  <record_id>  (667) 
2250859

>  <document_chembl_id>  (667) 
CHEMBL3351448

>  <bao_format>  (667) 
BAO_0000357

>  <data_validity_description>  (667) 
None

>  <activity_id>  (667) 
15055411

>  <standard_type>  (667) 
IC50

>  <target_chembl_id>  (667) 
CHEMBL1862

>  <data_validity_comment>  (667) 
None

>  <published_value>  (667) 
20.84

>  <document_year>  (667) 
2014

>  <target_pref_name>  (667) 
Tyrosine-protein kinase ABL

>  <assay_chembl_id>  (667) 
CHEMBL3367501

>  <standard_relation>  (667) 
=

>  <assay_description>  (667) 
Inhibition of c-Abl (unknown origin)

>  <published_relation>  (667) 
=

>  <standard_value>  (667) 
20840

>  <qudt_units>  (667) 
http://www.openphacts.org/units/Nanomolar

>  <target_tax_id>  (667) 
9606

>  <bao_label>  (667) 
single protein format

>  <published_units>  (667) 
uM

>  <pchembl_value>  (667) 
4.68

>  <published_type>  (667) 
IC50

>  <activity_comment>  (667) 
None

$$$$

     RDKit          

 24 26  0  0  0  0  0  0  0  0999 V2000
    0.0000    0.0000    0.0000 C   0  0  0  0  0  0  0  0  0  0  0  0
    0.0000    0.0000    0.0000 N   0  0  0  0  0  0  0  0  0  0  0  0
    0.0000    0.0000    0.0000 C   0  0  0  0  0  0  0  0  0  0  0  0
    0.0000    0.0000    0.0000 C   0  0  0  0  0  0  0  0  0  0  0  0
    0.0000    0.0000    0.0000 C   0  0  0  0  0  0  0  0  0  0  0  0
    0.0000    0.0000    0.0000 N   0  0  0  0  0  0  0  0  0  0  0  0
    0.0000    0.0000    0.0000 C   0  0  0  0  0  0  0  0  0  0  0  0
    0.0000    0.0000    0.0000 C   0  0  0  0  0  0  0  0  0  0  0  0
    0.0000    0.0000    0.0000 N   0  0  0  0  0  0  0  0  0  0  0  0
    0.0000    0.0000    0.0000 C   0  0  0  0  0  0  0  0  0  0  0  0
    0.0000    0.0000    0.0000 C   0  0  0  0  0  0  0  0  0  0  0  0
    0.0000    0.0000    0.0000 C   0  0  0  0  0  0  0  0  0  0  0  0
    0.0000    0.0000    0.0000 C   0  0  0  0  0  0  0  0  0  0  0  0
    0.0000    0.0000    0.0000 N   0  0  0  0  0  0  0  0  0  0  0  0
    0.0000    0.0000    0.0000 C   0  0  0  0  0  0  0  0  0  0  0  0
    0.0000    0.0000    0.0000 O   0  0  0  0  0  0  0  0  0  0  0  0
    0.0000    0.0000    0.0000 N   0  0  0  0  0  0  0  0  0  0  0  0
    0.0000    0.0000    0.0000 C   0  0  0  0  0  0  0  0  0  0  0  0
    0.0000    0.0000    0.0000 C   0  0  0  0  0  0  0  0  0  0  0  0
    0.0000    0.0000    0.0000 C   0  0  0  0  0  0  0  0  0  0  0  0
    0.0000    0.0000    0.0000 C   0  0  0  0  0  0  0  0  0  0  0  0
    0.0000    0.0000    0.0000 N   0  0  0  0  0  0  0  0  0  0  0  0
    0.0000    0.0000    0.0000 C   0  0  0  0  0  0  0  0  0  0  0  0
    0.0000    0.0000    0.0000 C   0  0  0  0  0  0  0  0  0  0  0  0
  1  2  1  0
  2  3  1  0
  3  4  2  0
  4  5  1  0
  5  6  2  0
  4  7  1  0
  7  8  2  0
  8  9  1  0
  9 10  2  0
 10 11  1  0
 11 12  2  0
 12 13  1  0
 13 14  1  0
 14 15  1  0
 15 16  2  0
 15 17  1  0
 17 18  1  0
 18 19  1  0
 18 20  1  0
 18 21  1  0
 13 22  2  0
 22 23  1  0
 23 24  2  0
  6  2  1  0
 24  7  1  0
 23 10  1  0
M  END
>  <pIC50>  (668) 
5.22

>  <ChEMBL_ID>  (668) 
CHEMBL3318027

>  <document_journal>  (668) 
Bioorg. Med. Chem. Lett.

>  <bao_endpoint>  (668) 
BAO_0000190

>  <potential_duplicate>  (668) 
False

>  <uo_units>  (668) 
UO_0000065

>  <canonical_smiles>  (668) 
Cn1cc(cn1)c2cnc3ccc(NC(=O)NC(C)(C)C)nc3c2

>  <parent_molecule_chembl_id>  (668) 
CHEMBL3318027

>  <assay_type>  (668) 
B

>  <src_id>  (668) 
1

>  <ligand_efficiency>  (668) 
{u'le': u'0.3', u'bei': u'16.09', u'sei': u'6.16', u'lle': u'3.17'}

>  <standard_flag>  (668) 
True

>  <molecule_chembl_id>  (668) 
CHEMBL3318027

>  <target_organism>  (668) 
Homo sapiens

>  <standard_units>  (668) 
nM

>  <record_id>  (668) 
2250863

>  <document_chembl_id>  (668) 
CHEMBL3351448

>  <bao_format>  (668) 
BAO_0000357

>  <data_validity_description>  (668) 
None

>  <activity_id>  (668) 
15055415

>  <standard_type>  (668) 
IC50

>  <target_chembl_id>  (668) 
CHEMBL1862

>  <data_validity_comment>  (668) 
None

>  <published_value>  (668) 
6.05

>  <document_year>  (668) 
2014

>  <target_pref_name>  (668) 
Tyrosine-protein kinase ABL

>  <assay_chembl_id>  (668) 
CHEMBL3367501

>  <standard_relation>  (668) 
=

>  <assay_description>  (668) 
Inhibition of c-Abl (unknown origin)

>  <published_relation>  (668) 
=

>  <standard_value>  (668) 
6050

>  <qudt_units>  (668) 
http://www.openphacts.org/units/Nanomolar

>  <target_tax_id>  (668) 
9606

>  <bao_label>  (668) 
single protein format

>  <published_units>  (668) 
uM

>  <pchembl_value>  (668) 
5.22

>  <published_type>  (668) 
IC50

>  <activity_comment>  (668) 
None

$$$$

     RDKit          

 23 25  0  0  0  0  0  0  0  0999 V2000
    0.0000    0.0000    0.0000 C   0  0  0  0  0  0  0  0  0  0  0  0
    0.0000    0.0000    0.0000 C   0  0  0  0  0  0  0  0  0  0  0  0
    0.0000    0.0000    0.0000 C   0  0  0  0  0  0  0  0  0  0  0  0
    0.0000    0.0000    0.0000 C   0  0  0  0  0  0  0  0  0  0  0  0
    0.0000    0.0000    0.0000 C   0  0  0  0  0  0  0  0  0  0  0  0
    0.0000    0.0000    0.0000 Cl  0  0  0  0  0  0  0  0  0  0  0  0
    0.0000    0.0000    0.0000 C   0  0  0  0  0  0  0  0  0  0  0  0
    0.0000    0.0000    0.0000 C   0  0  0  0  0  0  0  0  0  0  0  0
    0.0000    0.0000    0.0000 C   0  0  0  0  0  0  0  0  0  0  0  0
    0.0000    0.0000    0.0000 N   0  0  0  0  0  0  0  0  0  0  0  0
    0.0000    0.0000    0.0000 C   0  0  0  0  0  0  0  0  0  0  0  0
    0.0000    0.0000    0.0000 C   0  0  0  0  0  0  0  0  0  0  0  0
    0.0000    0.0000    0.0000 C   0  0  0  0  0  0  0  0  0  0  0  0
    0.0000    0.0000    0.0000 C   0  0  0  0  0  0  0  0  0  0  0  0
    0.0000    0.0000    0.0000 O   0  0  0  0  0  0  0  0  0  0  0  0
    0.0000    0.0000    0.0000 N   0  0  0  0  0  0  0  0  0  0  0  0
    0.0000    0.0000    0.0000 C   0  0  0  0  0  0  0  0  0  0  0  0
    0.0000    0.0000    0.0000 C   0  0  0  0  0  0  0  0  0  0  0  0
    0.0000    0.0000    0.0000 C   0  0  0  0  0  0  0  0  0  0  0  0
    0.0000    0.0000    0.0000 N   0  0  0  0  0  0  0  0  0  0  0  0
    0.0000    0.0000    0.0000 C   0  0  0  0  0  0  0  0  0  0  0  0
    0.0000    0.0000    0.0000 N   0  0  0  0  0  0  0  0  0  0  0  0
    0.0000    0.0000    0.0000 N   0  0  0  0  0  0  0  0  0  0  0  0
  1  2  1  0
  2  3  2  0
  3  4  1  0
  4  5  2  0
  5  6  1  0
  5  7  1  0
  7  8  2  0
  8  9  1  0
  9 10  1  0
 10 11  1  0
 11 12  2  0
 12 13  1  0
 13 14  1  0
 14 15  2  0
 14 16  1  0
 11 17  1  0
 17 18  2  0
 18 19  1  0
 19 20  2  0
 20 21  1  0
 21 22  1  0
 21 23  2  0
  8  2  1  0
 13  9  2  0
 23 17  1  0
M  END
>  <pIC50>  (669) 
6.37

>  <ChEMBL_ID>  (669) 
CHEMBL3330104

>  <document_journal>  (669) 
Bioorg. Med. Chem.

>  <bao_endpoint>  (669) 
BAO_0000190

>  <potential_duplicate>  (669) 
False

>  <uo_units>  (669) 
UO_0000065

>  <canonical_smiles>  (669) 
Cc1ccc(Cl)cc1c2[nH]c(cc2C(=O)N)c3ccnc(N)n3

>  <parent_molecule_chembl_id>  (669) 
CHEMBL3330104

>  <assay_type>  (669) 
B

>  <src_id>  (669) 
1

>  <ligand_efficiency>  (669) 
{u'le': u'0.38', u'bei': u'19.42', u'sei': u'5.75', u'lle': u'3.25'}

>  <standard_flag>  (669) 
True

>  <molecule_chembl_id>  (669) 
CHEMBL3330104

>  <target_organism>  (669) 
Homo sapiens

>  <standard_units>  (669) 
nM

>  <record_id>  (669) 
2265662

>  <document_chembl_id>  (669) 
CHEMBL3352511

>  <bao_format>  (669) 
BAO_0000219

>  <data_validity_description>  (669) 
None

>  <activity_id>  (669) 
15063487

>  <standard_type>  (669) 
IC50

>  <target_chembl_id>  (669) 
CHEMBL1862

>  <data_validity_comment>  (669) 
None

>  <published_value>  (669) 
0.43

>  <document_year>  (669) 
2014

>  <target_pref_name>  (669) 
Tyrosine-protein kinase ABL

>  <assay_chembl_id>  (669) 
CHEMBL3374497

>  <standard_relation>  (669) 
=

>  <assay_description>  (669) 
Inhibition of JAK2 V617F mutant in human SET2 cells

>  <published_relation>  (669) 
=

>  <standard_value>  (669) 
430

>  <qudt_units>  (669) 
http://www.openphacts.org/units/Nanomolar

>  <target_tax_id>  (669) 
9606

>  <bao_label>  (669) 
cell-based format

>  <published_units>  (669) 
uM

>  <pchembl_value>  (669) 
6.37

>  <published_type>  (669) 
IC50

>  <activity_comment>  (669) 
None

$$$$

     RDKit          

 24 26  0  0  0  0  0  0  0  0999 V2000
    0.0000    0.0000    0.0000 C   0  0  0  0  0  0  0  0  0  0  0  0
    0.0000    0.0000    0.0000 N   0  0  0  0  0  0  0  0  0  0  0  0
    0.0000    0.0000    0.0000 C   0  0  0  0  0  0  0  0  0  0  0  0
    0.0000    0.0000    0.0000 O   0  0  0  0  0  0  0  0  0  0  0  0
    0.0000    0.0000    0.0000 C   0  0  0  0  0  0  0  0  0  0  0  0
    0.0000    0.0000    0.0000 C   0  0  0  0  0  0  0  0  0  0  0  0
    0.0000    0.0000    0.0000 C   0  0  0  0  0  0  0  0  0  0  0  0
    0.0000    0.0000    0.0000 N   0  0  0  0  0  0  0  0  0  0  0  0
    0.0000    0.0000    0.0000 C   0  0  0  0  0  0  0  0  0  0  0  0
    0.0000    0.0000    0.0000 C   0  0  0  0  0  0  0  0  0  0  0  0
    0.0000    0.0000    0.0000 C   0  0  0  0  0  0  0  0  0  0  0  0
    0.0000    0.0000    0.0000 C   0  0  0  0  0  0  0  0  0  0  0  0
    0.0000    0.0000    0.0000 Cl  0  0  0  0  0  0  0  0  0  0  0  0
    0.0000    0.0000    0.0000 C   0  0  0  0  0  0  0  0  0  0  0  0
    0.0000    0.0000    0.0000 C   0  0  0  0  0  0  0  0  0  0  0  0
    0.0000    0.0000    0.0000 C   0  0  0  0  0  0  0  0  0  0  0  0
    0.0000    0.0000    0.0000 C   0  0  0  0  0  0  0  0  0  0  0  0
    0.0000    0.0000    0.0000 C   0  0  0  0  0  0  0  0  0  0  0  0
    0.0000    0.0000    0.0000 C   0  0  0  0  0  0  0  0  0  0  0  0
    0.0000    0.0000    0.0000 C   0  0  0  0  0  0  0  0  0  0  0  0
    0.0000    0.0000    0.0000 N   0  0  0  0  0  0  0  0  0  0  0  0
    0.0000    0.0000    0.0000 C   0  0  0  0  0  0  0  0  0  0  0  0
    0.0000    0.0000    0.0000 N   0  0  0  0  0  0  0  0  0  0  0  0
    0.0000    0.0000    0.0000 N   0  0  0  0  0  0  0  0  0  0  0  0
  1  2  1  0
  2  3  1  0
  3  4  2  0
  3  5  1  0
  5  6  1  0
  6  7  2  0
  7  8  1  0
  8  9  1  0
  9 10  1  0
 10 11  2  0
 11 12  1  0
 12 13  1  0
 12 14  2  0
 14 15  1  0
 15 16  2  0
 16 17  1  0
  7 18  1  0
 18 19  2  0
 19 20  1  0
 20 21  2  0
 21 22  1  0
 22 23  1  0
 22 24  2  0
  9  5  2  0
 16 10  1  0
 24 18  1  0
M  END
>  <pIC50>  (670) 
6.32

>  <ChEMBL_ID>  (670) 
CHEMBL3330105

>  <document_journal>  (670) 
Bioorg. Med. Chem.

>  <bao_endpoint>  (670) 
BAO_0000190

>  <potential_duplicate>  (670) 
False

>  <uo_units>  (670) 
UO_0000065

>  <canonical_smiles>  (670) 
CNC(=O)c1cc([nH]c1c2cc(Cl)ccc2C)c3ccnc(N)n3

>  <parent_molecule_chembl_id>  (670) 
CHEMBL3330105

>  <assay_type>  (670) 
B

>  <src_id>  (670) 
1

>  <ligand_efficiency>  (670) 
{u'le': u'0.36', u'bei': u'18.49', u'sei': u'6.54', u'lle': u'2.99'}

>  <standard_flag>  (670) 
True

>  <molecule_chembl_id>  (670) 
CHEMBL3330105

>  <target_organism>  (670) 
Homo sapiens

>  <standard_units>  (670) 
nM

>  <record_id>  (670) 
2265663

>  <document_chembl_id>  (670) 
CHEMBL3352511

>  <bao_format>  (670) 
BAO_0000219

>  <data_validity_description>  (670) 
None

>  <activity_id>  (670) 
15063488

>  <standard_type>  (670) 
IC50

>  <target_chembl_id>  (670) 
CHEMBL1862

>  <data_validity_comment>  (670) 
None

>  <published_value>  (670) 
0.48

>  <document_year>  (670) 
2014

>  <target_pref_name>  (670) 
Tyrosine-protein kinase ABL

>  <assay_chembl_id>  (670) 
CHEMBL3374497

>  <standard_relation>  (670) 
=

>  <assay_description>  (670) 
Inhibition of JAK2 V617F mutant in human SET2 cells

>  <published_relation>  (670) 
=

>  <standard_value>  (670) 
480

>  <qudt_units>  (670) 
http://www.openphacts.org/units/Nanomolar

>  <target_tax_id>  (670) 
9606

>  <bao_label>  (670) 
cell-based format

>  <published_units>  (670) 
uM

>  <pchembl_value>  (670) 
6.32

>  <published_type>  (670) 
IC50

>  <activity_comment>  (670) 
None

$$$$

     RDKit          

 24 26  0  0  0  0  0  0  0  0999 V2000
    0.0000    0.0000    0.0000 C   0  0  0  0  0  0  0  0  0  0  0  0
    0.0000    0.0000    0.0000 N   0  0  0  0  0  0  0  0  0  0  0  0
    0.0000    0.0000    0.0000 C   0  0  0  0  0  0  0  0  0  0  0  0
    0.0000    0.0000    0.0000 N   0  0  0  0  0  0  0  0  0  0  0  0
    0.0000    0.0000    0.0000 C   0  0  0  0  0  0  0  0  0  0  0  0
    0.0000    0.0000    0.0000 C   0  0  0  0  0  0  0  0  0  0  0  0
    0.0000    0.0000    0.0000 C   0  0  0  0  0  0  0  0  0  0  0  0
    0.0000    0.0000    0.0000 N   0  0  0  0  0  0  0  0  0  0  0  0
    0.0000    0.0000    0.0000 C   0  0  0  0  0  0  0  0  0  0  0  0
    0.0000    0.0000    0.0000 C   0  0  0  0  0  0  0  0  0  0  0  0
    0.0000    0.0000    0.0000 C   0  0  0  0  0  0  0  0  0  0  0  0
    0.0000    0.0000    0.0000 C   0  0  0  0  0  0  0  0  0  0  0  0
    0.0000    0.0000    0.0000 O   0  0  0  0  0  0  0  0  0  0  0  0
    0.0000    0.0000    0.0000 N   0  0  0  0  0  0  0  0  0  0  0  0
    0.0000    0.0000    0.0000 C   0  0  0  0  0  0  0  0  0  0  0  0
    0.0000    0.0000    0.0000 N   0  0  0  0  0  0  0  0  0  0  0  0
    0.0000    0.0000    0.0000 C   0  0  0  0  0  0  0  0  0  0  0  0
    0.0000    0.0000    0.0000 C   0  0  0  0  0  0  0  0  0  0  0  0
    0.0000    0.0000    0.0000 C   0  0  0  0  0  0  0  0  0  0  0  0
    0.0000    0.0000    0.0000 Cl  0  0  0  0  0  0  0  0  0  0  0  0
    0.0000    0.0000    0.0000 C   0  0  0  0  0  0  0  0  0  0  0  0
    0.0000    0.0000    0.0000 C   0  0  0  0  0  0  0  0  0  0  0  0
    0.0000    0.0000    0.0000 C   0  0  0  0  0  0  0  0  0  0  0  0
    0.0000    0.0000    0.0000 C   0  0  0  0  0  0  0  0  0  0  0  0
  1  2  1  0
  2  3  1  0
  3  4  2  0
  4  5  1  0
  5  6  2  0
  6  7  1  0
  7  8  2  0
  7  9  1  0
  9 10  2  0
 10 11  1  0
 11 12  1  0
 12 13  2  0
 12 14  1  0
 11 15  2  0
 15 16  1  0
 15 17  1  0
 17 18  2  0
 18 19  1  0
 19 20  1  0
 19 21  2  0
 21 22  1  0
 22 23  2  0
 23 24  1  0
  8  3  1  0
 16  9  1  0
 23 17  1  0
M  END
>  <pIC50>  (671) 
6.0

>  <ChEMBL_ID>  (671) 
CHEMBL3330118

>  <document_journal>  (671) 
Bioorg. Med. Chem.

>  <bao_endpoint>  (671) 
BAO_0000190

>  <potential_duplicate>  (671) 
False

>  <uo_units>  (671) 
UO_0000065

>  <canonical_smiles>  (671) 
CNc1nccc(n1)c2cc(C(=O)N)c([nH]2)c3cc(Cl)ccc3C

>  <parent_molecule_chembl_id>  (671) 
CHEMBL3330118

>  <assay_type>  (671) 
B

>  <src_id>  (671) 
1

>  <ligand_efficiency>  (671) 
{u'le': u'0.34', u'bei': u'17.54', u'sei': u'6.2', u'lle': u'2.32'}

>  <standard_flag>  (671) 
True

>  <molecule_chembl_id>  (671) 
CHEMBL3330118

>  <target_organism>  (671) 
Homo sapiens

>  <standard_units>  (671) 
nM

>  <record_id>  (671) 
2265677

>  <document_chembl_id>  (671) 
CHEMBL3352511

>  <bao_format>  (671) 
BAO_0000219

>  <data_validity_description>  (671) 
None

>  <activity_id>  (671) 
15063502

>  <standard_type>  (671) 
IC50

>  <target_chembl_id>  (671) 
CHEMBL1862

>  <data_validity_comment>  (671) 
None

>  <published_value>  (671) 
1.01

>  <document_year>  (671) 
2014

>  <target_pref_name>  (671) 
Tyrosine-protein kinase ABL

>  <assay_chembl_id>  (671) 
CHEMBL3374497

>  <standard_relation>  (671) 
=

>  <assay_description>  (671) 
Inhibition of JAK2 V617F mutant in human SET2 cells

>  <published_relation>  (671) 
=

>  <standard_value>  (671) 
1010

>  <qudt_units>  (671) 
http://www.openphacts.org/units/Nanomolar

>  <target_tax_id>  (671) 
9606

>  <bao_label>  (671) 
cell-based format

>  <published_units>  (671) 
uM

>  <pchembl_value>  (671) 
6

>  <published_type>  (671) 
IC50

>  <activity_comment>  (671) 
None

$$$$

     RDKit          

 37 41  0  0  0  0  0  0  0  0999 V2000
    0.0000    0.0000    0.0000 C   0  0  0  0  0  0  0  0  0  0  0  0
    0.0000    0.0000    0.0000 N   0  0  0  0  0  0  0  0  0  0  0  0
    0.0000    0.0000    0.0000 C   0  0  0  0  0  0  0  0  0  0  0  0
    0.0000    0.0000    0.0000 C   0  0  0  0  0  0  0  0  0  0  0  0
    0.0000    0.0000    0.0000 N   0  0  0  0  0  0  0  0  0  0  0  0
    0.0000    0.0000    0.0000 C   0  0  0  0  0  0  0  0  0  0  0  0
    0.0000    0.0000    0.0000 C   0  0  0  0  0  0  0  0  0  0  0  0
    0.0000    0.0000    0.0000 C   0  0  0  0  0  0  0  0  0  0  0  0
    0.0000    0.0000    0.0000 C   0  0  0  0  0  0  0  0  0  0  0  0
    0.0000    0.0000    0.0000 C   0  0  0  0  0  0  0  0  0  0  0  0
    0.0000    0.0000    0.0000 C   0  0  0  0  0  0  0  0  0  0  0  0
    0.0000    0.0000    0.0000 N   0  0  0  0  0  0  0  0  0  0  0  0
    0.0000    0.0000    0.0000 C   0  0  0  0  0  0  0  0  0  0  0  0
    0.0000    0.0000    0.0000 N   0  0  0  0  0  0  0  0  0  0  0  0
    0.0000    0.0000    0.0000 C   0  0  0  0  0  0  0  0  0  0  0  0
    0.0000    0.0000    0.0000 C   0  0  0  0  0  0  0  0  0  0  0  0
    0.0000    0.0000    0.0000 C   0  0  0  0  0  0  0  0  0  0  0  0
    0.0000    0.0000    0.0000 N   0  0  0  0  0  0  0  0  0  0  0  0
    0.0000    0.0000    0.0000 C   0  0  0  0  0  0  0  0  0  0  0  0
    0.0000    0.0000    0.0000 C   0  0  0  0  0  0  0  0  0  0  0  0
    0.0000    0.0000    0.0000 C   0  0  0  0  0  0  0  0  0  0  0  0
    0.0000    0.0000    0.0000 C   0  0  0  0  0  0  0  0  0  0  0  0
    0.0000    0.0000    0.0000 O   0  0  0  0  0  0  0  0  0  0  0  0
    0.0000    0.0000    0.0000 N   0  0  0  0  0  0  0  0  0  0  0  0
    0.0000    0.0000    0.0000 C   0  0  0  0  0  0  0  0  0  0  0  0
    0.0000    0.0000    0.0000 C   0  0  0  0  0  0  0  0  0  0  0  0
    0.0000    0.0000    0.0000 C   0  0  0  0  0  0  0  0  0  0  0  0
    0.0000    0.0000    0.0000 C   0  0  0  0  0  0  0  0  0  0  0  0
    0.0000    0.0000    0.0000 Cl  0  0  0  0  0  0  0  0  0  0  0  0
    0.0000    0.0000    0.0000 C   0  0  0  0  0  0  0  0  0  0  0  0
    0.0000    0.0000    0.0000 C   0  0  0  0  0  0  0  0  0  0  0  0
    0.0000    0.0000    0.0000 C   0  0  0  0  0  0  0  0  0  0  0  0
    0.0000    0.0000    0.0000 C   0  0  0  0  0  0  0  0  0  0  0  0
    0.0000    0.0000    0.0000 N   0  0  0  0  0  0  0  0  0  0  0  0
    0.0000    0.0000    0.0000 C   0  0  0  0  0  0  0  0  0  0  0  0
    0.0000    0.0000    0.0000 C   0  0  0  0  0  0  0  0  0  0  0  0
    0.0000    0.0000    0.0000 C   0  0  0  0  0  0  0  0  0  0  0  0
  1  2  1  0
  2  3  1  0
  3  4  1  0
  4  5  1  0
  5  6  1  0
  6  7  1  0
  5  8  1  0
  8  9  2  0
  9 10  1  0
 10 11  2  0
 11 12  1  0
 12 13  1  0
 13 14  2  0
 14 15  1  0
 15 16  2  0
 16 17  1  0
 17 18  2  0
 17 19  1  0
 19 20  2  0
 20 21  1  0
 21 22  1  0
 22 23  2  0
 22 24  1  0
 21 25  2  0
 25 26  1  0
 26 27  2  0
 27 28  1  0
 28 29  1  0
 28 30  2  0
 30 31  1  0
 31 32  2  0
 32 33  1  0
 25 34  1  0
 34 35  1  0
 11 36  1  0
 36 37  2  0
  7  2  1  0
 37  8  1  0
 18 13  1  0
 34 19  1  0
 32 26  1  0
M  END
>  <pIC50>  (672) 
6.6

>  <ChEMBL_ID>  (672) 
CHEMBL3330121

>  <document_journal>  (672) 
Bioorg. Med. Chem.

>  <bao_endpoint>  (672) 
BAO_0000190

>  <potential_duplicate>  (672) 
False

>  <uo_units>  (672) 
UO_0000065

>  <canonical_smiles>  (672) 
CN1CCN(CC1)c2ccc(Nc3nccc(n3)c4cc(C(=O)N)c(c5cc(Cl)ccc5C)n4C)cc2

>  <parent_molecule_chembl_id>  (672) 
CHEMBL3330121

>  <assay_type>  (672) 
B

>  <src_id>  (672) 
1

>  <ligand_efficiency>  (672) 
{u'le': u'0.24', u'bei': u'12.79', u'sei': u'7.15', u'lle': u'0.86'}

>  <standard_flag>  (672) 
True

>  <molecule_chembl_id>  (672) 
CHEMBL3330121

>  <target_organism>  (672) 
Homo sapiens

>  <standard_units>  (672) 
nM

>  <record_id>  (672) 
2267738

>  <document_chembl_id>  (672) 
CHEMBL3352511

>  <bao_format>  (672) 
BAO_0000219

>  <data_validity_description>  (672) 
None

>  <activity_id>  (672) 
15063505

>  <standard_type>  (672) 
IC50

>  <target_chembl_id>  (672) 
CHEMBL1862

>  <data_validity_comment>  (672) 
None

>  <published_value>  (672) 
0.25

>  <document_year>  (672) 
2014

>  <target_pref_name>  (672) 
Tyrosine-protein kinase ABL

>  <assay_chembl_id>  (672) 
CHEMBL3374497

>  <standard_relation>  (672) 
=

>  <assay_description>  (672) 
Inhibition of JAK2 V617F mutant in human SET2 cells

>  <published_relation>  (672) 
=

>  <standard_value>  (672) 
250

>  <qudt_units>  (672) 
http://www.openphacts.org/units/Nanomolar

>  <target_tax_id>  (672) 
9606

>  <bao_label>  (672) 
cell-based format

>  <published_units>  (672) 
uM

>  <pchembl_value>  (672) 
6.6

>  <published_type>  (672) 
IC50

>  <activity_comment>  (672) 
None

$$$$

     RDKit          

 23 25  0  0  0  0  0  0  0  0999 V2000
    0.0000    0.0000    0.0000 N   0  0  0  0  0  0  0  0  0  0  0  0
    0.0000    0.0000    0.0000 C   0  0  0  0  0  0  0  0  0  0  0  0
    0.0000    0.0000    0.0000 O   0  0  0  0  0  0  0  0  0  0  0  0
    0.0000    0.0000    0.0000 C   0  0  0  0  0  0  0  0  0  0  0  0
    0.0000    0.0000    0.0000 C   0  0  0  0  0  0  0  0  0  0  0  0
    0.0000    0.0000    0.0000 C   0  0  0  0  0  0  0  0  0  0  0  0
    0.0000    0.0000    0.0000 N   0  0  0  0  0  0  0  0  0  0  0  0
    0.0000    0.0000    0.0000 C   0  0  0  0  0  0  0  0  0  0  0  0
    0.0000    0.0000    0.0000 C   0  0  0  0  0  0  0  0  0  0  0  0
    0.0000    0.0000    0.0000 C   0  0  0  0  0  0  0  0  0  0  0  0
    0.0000    0.0000    0.0000 C   0  0  0  0  0  0  0  0  0  0  0  0
    0.0000    0.0000    0.0000 Cl  0  0  0  0  0  0  0  0  0  0  0  0
    0.0000    0.0000    0.0000 C   0  0  0  0  0  0  0  0  0  0  0  0
    0.0000    0.0000    0.0000 C   0  0  0  0  0  0  0  0  0  0  0  0
    0.0000    0.0000    0.0000 C   0  0  0  0  0  0  0  0  0  0  0  0
    0.0000    0.0000    0.0000 Cl  0  0  0  0  0  0  0  0  0  0  0  0
    0.0000    0.0000    0.0000 C   0  0  0  0  0  0  0  0  0  0  0  0
    0.0000    0.0000    0.0000 C   0  0  0  0  0  0  0  0  0  0  0  0
    0.0000    0.0000    0.0000 C   0  0  0  0  0  0  0  0  0  0  0  0
    0.0000    0.0000    0.0000 N   0  0  0  0  0  0  0  0  0  0  0  0
    0.0000    0.0000    0.0000 C   0  0  0  0  0  0  0  0  0  0  0  0
    0.0000    0.0000    0.0000 N   0  0  0  0  0  0  0  0  0  0  0  0
    0.0000    0.0000    0.0000 N   0  0  0  0  0  0  0  0  0  0  0  0
  1  2  1  0
  2  3  2  0
  2  4  1  0
  4  5  1  0
  5  6  2  0
  6  7  1  0
  7  8  1  0
  8  9  1  0
  9 10  2  0
 10 11  1  0
 11 12  1  0
 11 13  2  0
 13 14  1  0
 14 15  2  0
 15 16  1  0
  6 17  1  0
 17 18  2  0
 18 19  1  0
 19 20  2  0
 20 21  1  0
 21 22  1  0
 21 23  2  0
  8  4  2  0
 15  9  1  0
 23 17  1  0
M  END
>  <pIC50>  (673) 
6.16

>  <ChEMBL_ID>  (673) 
CHEMBL3330122

>  <document_journal>  (673) 
Bioorg. Med. Chem.

>  <bao_endpoint>  (673) 
BAO_0000190

>  <potential_duplicate>  (673) 
False

>  <uo_units>  (673) 
UO_0000065

>  <canonical_smiles>  (673) 
NC(=O)c1cc([nH]c1c2cc(Cl)ccc2Cl)c3ccnc(N)n3

>  <parent_molecule_chembl_id>  (673) 
CHEMBL3330122

>  <assay_type>  (673) 
B

>  <src_id>  (673) 
1

>  <ligand_efficiency>  (673) 
{u'le': u'0.37', u'bei': u'17.68', u'sei': u'5.56', u'lle': u'2.85'}

>  <standard_flag>  (673) 
True

>  <molecule_chembl_id>  (673) 
CHEMBL3330122

>  <target_organism>  (673) 
Homo sapiens

>  <standard_units>  (673) 
nM

>  <record_id>  (673) 
2267739

>  <document_chembl_id>  (673) 
CHEMBL3352511

>  <bao_format>  (673) 
BAO_0000219

>  <data_validity_description>  (673) 
None

>  <activity_id>  (673) 
15063506

>  <standard_type>  (673) 
IC50

>  <target_chembl_id>  (673) 
CHEMBL1862

>  <data_validity_comment>  (673) 
None

>  <published_value>  (673) 
0.7

>  <document_year>  (673) 
2014

>  <target_pref_name>  (673) 
Tyrosine-protein kinase ABL

>  <assay_chembl_id>  (673) 
CHEMBL3374497

>  <standard_relation>  (673) 
=

>  <assay_description>  (673) 
Inhibition of JAK2 V617F mutant in human SET2 cells

>  <published_relation>  (673) 
=

>  <standard_value>  (673) 
700

>  <qudt_units>  (673) 
http://www.openphacts.org/units/Nanomolar

>  <target_tax_id>  (673) 
9606

>  <bao_label>  (673) 
cell-based format

>  <published_units>  (673) 
uM

>  <pchembl_value>  (673) 
6.16

>  <published_type>  (673) 
IC50

>  <activity_comment>  (673) 
None

$$$$

     RDKit          

 26 28  0  0  0  0  0  0  0  0999 V2000
    0.0000    0.0000    0.0000 C   0  0  0  0  0  0  0  0  0  0  0  0
    0.0000    0.0000    0.0000 C   0  0  0  0  0  0  0  0  0  0  0  0
    0.0000    0.0000    0.0000 C   0  0  0  0  0  0  0  0  0  0  0  0
    0.0000    0.0000    0.0000 C   0  0  0  0  0  0  0  0  0  0  0  0
    0.0000    0.0000    0.0000 C   0  0  0  0  0  0  0  0  0  0  0  0
    0.0000    0.0000    0.0000 C   0  0  0  0  0  0  0  0  0  0  0  0
    0.0000    0.0000    0.0000 C   0  0  0  0  0  0  0  0  0  0  0  0
    0.0000    0.0000    0.0000 C   0  0  0  0  0  0  0  0  0  0  0  0
    0.0000    0.0000    0.0000 N   0  0  0  0  0  0  0  0  0  0  0  0
    0.0000    0.0000    0.0000 C   0  0  0  0  0  0  0  0  0  0  0  0
    0.0000    0.0000    0.0000 C   0  0  0  0  0  0  0  0  0  0  0  0
    0.0000    0.0000    0.0000 C   0  0  0  0  0  0  0  0  0  0  0  0
    0.0000    0.0000    0.0000 C   0  0  0  0  0  0  0  0  0  0  0  0
    0.0000    0.0000    0.0000 O   0  0  0  0  0  0  0  0  0  0  0  0
    0.0000    0.0000    0.0000 N   0  0  0  0  0  0  0  0  0  0  0  0
    0.0000    0.0000    0.0000 C   0  0  0  0  0  0  0  0  0  0  0  0
    0.0000    0.0000    0.0000 C   0  0  0  0  0  0  0  0  0  0  0  0
    0.0000    0.0000    0.0000 C   0  0  0  0  0  0  0  0  0  0  0  0
    0.0000    0.0000    0.0000 N   0  0  0  0  0  0  0  0  0  0  0  0
    0.0000    0.0000    0.0000 C   0  0  0  0  0  0  0  0  0  0  0  0
    0.0000    0.0000    0.0000 N   0  0  0  0  0  0  0  0  0  0  0  0
    0.0000    0.0000    0.0000 N   0  0  0  0  0  0  0  0  0  0  0  0
    0.0000    0.0000    0.0000 C   0  0  0  0  0  0  0  0  0  0  0  0
    0.0000    0.0000    0.0000 F   0  0  0  0  0  0  0  0  0  0  0  0
    0.0000    0.0000    0.0000 F   0  0  0  0  0  0  0  0  0  0  0  0
    0.0000    0.0000    0.0000 F   0  0  0  0  0  0  0  0  0  0  0  0
  1  2  1  0
  2  3  2  0
  3  4  1  0
  4  5  2  0
  5  6  1  0
  6  7  2  0
  7  8  1  0
  8  9  1  0
  9 10  1  0
 10 11  2  0
 11 12  1  0
 12 13  1  0
 13 14  2  0
 13 15  1  0
 10 16  1  0
 16 17  2  0
 17 18  1  0
 18 19  2  0
 19 20  1  0
 20 21  1  0
 20 22  2  0
  5 23  1  0
 23 24  1  0
 23 25  1  0
 23 26  1  0
  7  2  1  0
 12  8  2  0
 22 16  1  0
M  END
>  <pIC50>  (674) 
6.12

>  <ChEMBL_ID>  (674) 
CHEMBL3330124

>  <document_journal>  (674) 
Bioorg. Med. Chem.

>  <bao_endpoint>  (674) 
BAO_0000190

>  <potential_duplicate>  (674) 
False

>  <uo_units>  (674) 
UO_0000065

>  <canonical_smiles>  (674) 
Cc1ccc(cc1c2[nH]c(cc2C(=O)N)c3ccnc(N)n3)C(F)(F)F

>  <parent_molecule_chembl_id>  (674) 
CHEMBL3330124

>  <assay_type>  (674) 
B

>  <src_id>  (674) 
1

>  <ligand_efficiency>  (674) 
{u'le': u'0.32', u'bei': u'16.94', u'sei': u'5.53', u'lle': u'2.72'}

>  <standard_flag>  (674) 
True

>  <molecule_chembl_id>  (674) 
CHEMBL3330124

>  <target_organism>  (674) 
Homo sapiens

>  <standard_units>  (674) 
nM

>  <record_id>  (674) 
2267741

>  <document_chembl_id>  (674) 
CHEMBL3352511

>  <bao_format>  (674) 
BAO_0000219

>  <data_validity_description>  (674) 
None

>  <activity_id>  (674) 
15063508

>  <standard_type>  (674) 
IC50

>  <target_chembl_id>  (674) 
CHEMBL1862

>  <data_validity_comment>  (674) 
None

>  <published_value>  (674) 
0.76

>  <document_year>  (674) 
2014

>  <target_pref_name>  (674) 
Tyrosine-protein kinase ABL

>  <assay_chembl_id>  (674) 
CHEMBL3374497

>  <standard_relation>  (674) 
=

>  <assay_description>  (674) 
Inhibition of JAK2 V617F mutant in human SET2 cells

>  <published_relation>  (674) 
=

>  <standard_value>  (674) 
760

>  <qudt_units>  (674) 
http://www.openphacts.org/units/Nanomolar

>  <target_tax_id>  (674) 
9606

>  <bao_label>  (674) 
cell-based format

>  <published_units>  (674) 
uM

>  <pchembl_value>  (674) 
6.12

>  <published_type>  (674) 
IC50

>  <activity_comment>  (674) 
None

$$$$

     RDKit          

 26 28  0  0  0  0  0  0  0  0999 V2000
    0.0000    0.0000    0.0000 N   0  0  0  0  0  0  0  0  0  0  0  0
    0.0000    0.0000    0.0000 C   0  0  0  0  0  0  0  0  0  0  0  0
    0.0000    0.0000    0.0000 O   0  0  0  0  0  0  0  0  0  0  0  0
    0.0000    0.0000    0.0000 C   0  0  0  0  0  0  0  0  0  0  0  0
    0.0000    0.0000    0.0000 C   0  0  0  0  0  0  0  0  0  0  0  0
    0.0000    0.0000    0.0000 C   0  0  0  0  0  0  0  0  0  0  0  0
    0.0000    0.0000    0.0000 N   0  0  0  0  0  0  0  0  0  0  0  0
    0.0000    0.0000    0.0000 C   0  0  0  0  0  0  0  0  0  0  0  0
    0.0000    0.0000    0.0000 C   0  0  0  0  0  0  0  0  0  0  0  0
    0.0000    0.0000    0.0000 C   0  0  0  0  0  0  0  0  0  0  0  0
    0.0000    0.0000    0.0000 C   0  0  0  0  0  0  0  0  0  0  0  0
    0.0000    0.0000    0.0000 C   0  0  0  0  0  0  0  0  0  0  0  0
    0.0000    0.0000    0.0000 C   0  0  0  0  0  0  0  0  0  0  0  0
    0.0000    0.0000    0.0000 C   0  0  0  0  0  0  0  0  0  0  0  0
    0.0000    0.0000    0.0000 Cl  0  0  0  0  0  0  0  0  0  0  0  0
    0.0000    0.0000    0.0000 C   0  0  0  0  0  0  0  0  0  0  0  0
    0.0000    0.0000    0.0000 F   0  0  0  0  0  0  0  0  0  0  0  0
    0.0000    0.0000    0.0000 F   0  0  0  0  0  0  0  0  0  0  0  0
    0.0000    0.0000    0.0000 F   0  0  0  0  0  0  0  0  0  0  0  0
    0.0000    0.0000    0.0000 C   0  0  0  0  0  0  0  0  0  0  0  0
    0.0000    0.0000    0.0000 C   0  0  0  0  0  0  0  0  0  0  0  0
    0.0000    0.0000    0.0000 C   0  0  0  0  0  0  0  0  0  0  0  0
    0.0000    0.0000    0.0000 N   0  0  0  0  0  0  0  0  0  0  0  0
    0.0000    0.0000    0.0000 C   0  0  0  0  0  0  0  0  0  0  0  0
    0.0000    0.0000    0.0000 N   0  0  0  0  0  0  0  0  0  0  0  0
    0.0000    0.0000    0.0000 N   0  0  0  0  0  0  0  0  0  0  0  0
  1  2  1  0
  2  3  2  0
  2  4  1  0
  4  5  1  0
  5  6  2  0
  6  7  1  0
  7  8  1  0
  8  9  1  0
  9 10  2  0
 10 11  1  0
 11 12  2  0
 12 13  1  0
 13 14  2  0
 14 15  1  0
 11 16  1  0
 16 17  1  0
 16 18  1  0
 16 19  1  0
  6 20  1  0
 20 21  2  0
 21 22  1  0
 22 23  2  0
 23 24  1  0
 24 25  1  0
 24 26  2  0
  8  4  2  0
 14  9  1  0
 26 20  1  0
M  END
>  <pIC50>  (675) 
6.32

>  <ChEMBL_ID>  (675) 
CHEMBL3330125

>  <document_journal>  (675) 
Bioorg. Med. Chem.

>  <bao_endpoint>  (675) 
BAO_0000190

>  <potential_duplicate>  (675) 
False

>  <uo_units>  (675) 
UO_0000065

>  <canonical_smiles>  (675) 
NC(=O)c1cc([nH]c1c2cc(ccc2Cl)C(F)(F)F)c3ccnc(N)n3

>  <parent_molecule_chembl_id>  (675) 
CHEMBL3330125

>  <assay_type>  (675) 
B

>  <src_id>  (675) 
1

>  <ligand_efficiency>  (675) 
{u'le': u'0.33', u'bei': u'16.55', u'sei': u'5.71', u'lle': u'2.74'}

>  <standard_flag>  (675) 
True

>  <molecule_chembl_id>  (675) 
CHEMBL3330125

>  <target_organism>  (675) 
Homo sapiens

>  <standard_units>  (675) 
nM

>  <record_id>  (675) 
2267742

>  <document_chembl_id>  (675) 
CHEMBL3352511

>  <bao_format>  (675) 
BAO_0000219

>  <data_validity_description>  (675) 
None

>  <activity_id>  (675) 
15063509

>  <standard_type>  (675) 
IC50

>  <target_chembl_id>  (675) 
CHEMBL1862

>  <data_validity_comment>  (675) 
None

>  <published_value>  (675) 
0.48

>  <document_year>  (675) 
2014

>  <target_pref_name>  (675) 
Tyrosine-protein kinase ABL

>  <assay_chembl_id>  (675) 
CHEMBL3374497

>  <standard_relation>  (675) 
=

>  <assay_description>  (675) 
Inhibition of JAK2 V617F mutant in human SET2 cells

>  <published_relation>  (675) 
=

>  <standard_value>  (675) 
480

>  <qudt_units>  (675) 
http://www.openphacts.org/units/Nanomolar

>  <target_tax_id>  (675) 
9606

>  <bao_label>  (675) 
cell-based format

>  <published_units>  (675) 
uM

>  <pchembl_value>  (675) 
6.32

>  <published_type>  (675) 
IC50

>  <activity_comment>  (675) 
None

$$$$

     RDKit          

 27 29  0  0  0  0  0  0  0  0999 V2000
    0.0000    0.0000    0.0000 N   0  0  0  0  0  0  0  0  0  0  0  0
    0.0000    0.0000    0.0000 C   0  0  0  0  0  0  0  0  0  0  0  0
    0.0000    0.0000    0.0000 O   0  0  0  0  0  0  0  0  0  0  0  0
    0.0000    0.0000    0.0000 C   0  0  0  0  0  0  0  0  0  0  0  0
    0.0000    0.0000    0.0000 C   0  0  0  0  0  0  0  0  0  0  0  0
    0.0000    0.0000    0.0000 C   0  0  0  0  0  0  0  0  0  0  0  0
    0.0000    0.0000    0.0000 N   0  0  0  0  0  0  0  0  0  0  0  0
    0.0000    0.0000    0.0000 C   0  0  0  0  0  0  0  0  0  0  0  0
    0.0000    0.0000    0.0000 C   0  0  0  0  0  0  0  0  0  0  0  0
    0.0000    0.0000    0.0000 C   0  0  0  0  0  0  0  0  0  0  0  0
    0.0000    0.0000    0.0000 C   0  0  0  0  0  0  0  0  0  0  0  0
    0.0000    0.0000    0.0000 O   0  0  0  0  0  0  0  0  0  0  0  0
    0.0000    0.0000    0.0000 C   0  0  0  0  0  0  0  0  0  0  0  0
    0.0000    0.0000    0.0000 F   0  0  0  0  0  0  0  0  0  0  0  0
    0.0000    0.0000    0.0000 F   0  0  0  0  0  0  0  0  0  0  0  0
    0.0000    0.0000    0.0000 F   0  0  0  0  0  0  0  0  0  0  0  0
    0.0000    0.0000    0.0000 C   0  0  0  0  0  0  0  0  0  0  0  0
    0.0000    0.0000    0.0000 C   0  0  0  0  0  0  0  0  0  0  0  0
    0.0000    0.0000    0.0000 C   0  0  0  0  0  0  0  0  0  0  0  0
    0.0000    0.0000    0.0000 Cl  0  0  0  0  0  0  0  0  0  0  0  0
    0.0000    0.0000    0.0000 C   0  0  0  0  0  0  0  0  0  0  0  0
    0.0000    0.0000    0.0000 C   0  0  0  0  0  0  0  0  0  0  0  0
    0.0000    0.0000    0.0000 C   0  0  0  0  0  0  0  0  0  0  0  0
    0.0000    0.0000    0.0000 N   0  0  0  0  0  0  0  0  0  0  0  0
    0.0000    0.0000    0.0000 C   0  0  0  0  0  0  0  0  0  0  0  0
    0.0000    0.0000    0.0000 N   0  0  0  0  0  0  0  0  0  0  0  0
    0.0000    0.0000    0.0000 N   0  0  0  0  0  0  0  0  0  0  0  0
  1  2  1  0
  2  3  2  0
  2  4  1  0
  4  5  1  0
  5  6  2  0
  6  7  1  0
  7  8  1  0
  8  9  1  0
  9 10  2  0
 10 11  1  0
 11 12  1  0
 12 13  1  0
 13 14  1  0
 13 15  1  0
 13 16  1  0
 11 17  2  0
 17 18  1  0
 18 19  2  0
 19 20  1  0
  6 21  1  0
 21 22  2  0
 22 23  1  0
 23 24  2  0
 24 25  1  0
 25 26  1  0
 25 27  2  0
  8  4  2  0
 19  9  1  0
 27 21  1  0
M  END
>  <pIC50>  (676) 
5.96

>  <ChEMBL_ID>  (676) 
CHEMBL3330126

>  <document_journal>  (676) 
Bioorg. Med. Chem.

>  <bao_endpoint>  (676) 
BAO_0000190

>  <potential_duplicate>  (676) 
False

>  <uo_units>  (676) 
UO_0000065

>  <canonical_smiles>  (676) 
NC(=O)c1cc([nH]c1c2cc(OC(F)(F)F)ccc2Cl)c3ccnc(N)n3

>  <parent_molecule_chembl_id>  (676) 
CHEMBL3330126

>  <assay_type>  (676) 
B

>  <src_id>  (676) 
1

>  <ligand_efficiency>  (676) 
{u'le': u'0.3', u'bei': u'14.98', u'sei': u'4.97', u'lle': u'1.21'}

>  <standard_flag>  (676) 
True

>  <molecule_chembl_id>  (676) 
CHEMBL3330126

>  <target_organism>  (676) 
Homo sapiens

>  <standard_units>  (676) 
nM

>  <record_id>  (676) 
2267743

>  <document_chembl_id>  (676) 
CHEMBL3352511

>  <bao_format>  (676) 
BAO_0000219

>  <data_validity_description>  (676) 
None

>  <activity_id>  (676) 
15063510

>  <standard_type>  (676) 
IC50

>  <target_chembl_id>  (676) 
CHEMBL1862

>  <data_validity_comment>  (676) 
None

>  <published_value>  (676) 
1.1

>  <document_year>  (676) 
2014

>  <target_pref_name>  (676) 
Tyrosine-protein kinase ABL

>  <assay_chembl_id>  (676) 
CHEMBL3374497

>  <standard_relation>  (676) 
=

>  <assay_description>  (676) 
Inhibition of JAK2 V617F mutant in human SET2 cells

>  <published_relation>  (676) 
=

>  <standard_value>  (676) 
1100

>  <qudt_units>  (676) 
http://www.openphacts.org/units/Nanomolar

>  <target_tax_id>  (676) 
9606

>  <bao_label>  (676) 
cell-based format

>  <published_units>  (676) 
uM

>  <pchembl_value>  (676) 
5.96

>  <published_type>  (676) 
IC50

>  <activity_comment>  (676) 
None

$$$$

     RDKit          

 29 31  0  0  0  0  0  0  0  0999 V2000
    0.0000    0.0000    0.0000 N   0  0  0  0  0  0  0  0  0  0  0  0
    0.0000    0.0000    0.0000 C   0  0  0  0  0  0  0  0  0  0  0  0
    0.0000    0.0000    0.0000 O   0  0  0  0  0  0  0  0  0  0  0  0
    0.0000    0.0000    0.0000 C   0  0  0  0  0  0  0  0  0  0  0  0
    0.0000    0.0000    0.0000 C   0  0  0  0  0  0  0  0  0  0  0  0
    0.0000    0.0000    0.0000 C   0  0  0  0  0  0  0  0  0  0  0  0
    0.0000    0.0000    0.0000 N   0  0  0  0  0  0  0  0  0  0  0  0
    0.0000    0.0000    0.0000 C   0  0  0  0  0  0  0  0  0  0  0  0
    0.0000    0.0000    0.0000 C   0  0  0  0  0  0  0  0  0  0  0  0
    0.0000    0.0000    0.0000 C   0  0  0  0  0  0  0  0  0  0  0  0
    0.0000    0.0000    0.0000 C   0  0  0  0  0  0  0  0  0  0  0  0
    0.0000    0.0000    0.0000 C   0  0  0  0  0  0  0  0  0  0  0  0
    0.0000    0.0000    0.0000 C   0  0  0  0  0  0  0  0  0  0  0  0
    0.0000    0.0000    0.0000 C   0  0  0  0  0  0  0  0  0  0  0  0
    0.0000    0.0000    0.0000 C   0  0  0  0  0  0  0  0  0  0  0  0
    0.0000    0.0000    0.0000 F   0  0  0  0  0  0  0  0  0  0  0  0
    0.0000    0.0000    0.0000 F   0  0  0  0  0  0  0  0  0  0  0  0
    0.0000    0.0000    0.0000 F   0  0  0  0  0  0  0  0  0  0  0  0
    0.0000    0.0000    0.0000 C   0  0  0  0  0  0  0  0  0  0  0  0
    0.0000    0.0000    0.0000 F   0  0  0  0  0  0  0  0  0  0  0  0
    0.0000    0.0000    0.0000 F   0  0  0  0  0  0  0  0  0  0  0  0
    0.0000    0.0000    0.0000 F   0  0  0  0  0  0  0  0  0  0  0  0
    0.0000    0.0000    0.0000 C   0  0  0  0  0  0  0  0  0  0  0  0
    0.0000    0.0000    0.0000 C   0  0  0  0  0  0  0  0  0  0  0  0
    0.0000    0.0000    0.0000 C   0  0  0  0  0  0  0  0  0  0  0  0
    0.0000    0.0000    0.0000 N   0  0  0  0  0  0  0  0  0  0  0  0
    0.0000    0.0000    0.0000 C   0  0  0  0  0  0  0  0  0  0  0  0
    0.0000    0.0000    0.0000 N   0  0  0  0  0  0  0  0  0  0  0  0
    0.0000    0.0000    0.0000 N   0  0  0  0  0  0  0  0  0  0  0  0
  1  2  1  0
  2  3  2  0
  2  4  1  0
  4  5  1  0
  5  6  2  0
  6  7  1  0
  7  8  1  0
  8  9  1  0
  9 10  2  0
 10 11  1  0
 11 12  2  0
 12 13  1  0
 13 14  2  0
 14 15  1  0
 15 16  1  0
 15 17  1  0
 15 18  1  0
 11 19  1  0
 19 20  1  0
 19 21  1  0
 19 22  1  0
  6 23  1  0
 23 24  2  0
 24 25  1  0
 25 26  2  0
 26 27  1  0
 27 28  1  0
 27 29  2  0
  8  4  2  0
 14  9  1  0
 29 23  1  0
M  END
>  <pIC50>  (677) 
5.51

>  <ChEMBL_ID>  (677) 
CHEMBL3330127

>  <document_journal>  (677) 
Bioorg. Med. Chem.

>  <bao_endpoint>  (677) 
BAO_0000190

>  <potential_duplicate>  (677) 
False

>  <uo_units>  (677) 
UO_0000065

>  <canonical_smiles>  (677) 
NC(=O)c1cc([nH]c1c2cc(ccc2C(F)(F)F)C(F)(F)F)c3ccnc(N)n3

>  <parent_molecule_chembl_id>  (677) 
CHEMBL3330127

>  <assay_type>  (677) 
B

>  <src_id>  (677) 
1

>  <ligand_efficiency>  (677) 
{u'le': u'0.26', u'bei': u'13.27', u'sei': u'4.98', u'lle': u'1.66'}

>  <standard_flag>  (677) 
True

>  <molecule_chembl_id>  (677) 
CHEMBL3330127

>  <target_organism>  (677) 
Homo sapiens

>  <standard_units>  (677) 
nM

>  <record_id>  (677) 
2267744

>  <document_chembl_id>  (677) 
CHEMBL3352511

>  <bao_format>  (677) 
BAO_0000219

>  <data_validity_description>  (677) 
None

>  <activity_id>  (677) 
15063511

>  <standard_type>  (677) 
IC50

>  <target_chembl_id>  (677) 
CHEMBL1862

>  <data_validity_comment>  (677) 
None

>  <published_value>  (677) 
3.07

>  <document_year>  (677) 
2014

>  <target_pref_name>  (677) 
Tyrosine-protein kinase ABL

>  <assay_chembl_id>  (677) 
CHEMBL3374497

>  <standard_relation>  (677) 
=

>  <assay_description>  (677) 
Inhibition of JAK2 V617F mutant in human SET2 cells

>  <published_relation>  (677) 
=

>  <standard_value>  (677) 
3070

>  <qudt_units>  (677) 
http://www.openphacts.org/units/Nanomolar

>  <target_tax_id>  (677) 
9606

>  <bao_label>  (677) 
cell-based format

>  <published_units>  (677) 
uM

>  <pchembl_value>  (677) 
5.51

>  <published_type>  (677) 
IC50

>  <activity_comment>  (677) 
None

$$$$

     RDKit          

 24 26  0  0  0  0  0  0  0  0999 V2000
    0.0000    0.0000    0.0000 C   0  0  0  0  0  0  0  0  0  0  0  0
    0.0000    0.0000    0.0000 C   0  0  0  0  0  0  0  0  0  0  0  0
    0.0000    0.0000    0.0000 C   0  0  0  0  0  0  0  0  0  0  0  0
    0.0000    0.0000    0.0000 C   0  0  0  0  0  0  0  0  0  0  0  0
    0.0000    0.0000    0.0000 C   0  0  0  0  0  0  0  0  0  0  0  0
    0.0000    0.0000    0.0000 C   0  0  0  0  0  0  0  0  0  0  0  0
    0.0000    0.0000    0.0000 Cl  0  0  0  0  0  0  0  0  0  0  0  0
    0.0000    0.0000    0.0000 C   0  0  0  0  0  0  0  0  0  0  0  0
    0.0000    0.0000    0.0000 C   0  0  0  0  0  0  0  0  0  0  0  0
    0.0000    0.0000    0.0000 C   0  0  0  0  0  0  0  0  0  0  0  0
    0.0000    0.0000    0.0000 N   0  0  0  0  0  0  0  0  0  0  0  0
    0.0000    0.0000    0.0000 C   0  0  0  0  0  0  0  0  0  0  0  0
    0.0000    0.0000    0.0000 C   0  0  0  0  0  0  0  0  0  0  0  0
    0.0000    0.0000    0.0000 C   0  0  0  0  0  0  0  0  0  0  0  0
    0.0000    0.0000    0.0000 C   0  0  0  0  0  0  0  0  0  0  0  0
    0.0000    0.0000    0.0000 O   0  0  0  0  0  0  0  0  0  0  0  0
    0.0000    0.0000    0.0000 N   0  0  0  0  0  0  0  0  0  0  0  0
    0.0000    0.0000    0.0000 C   0  0  0  0  0  0  0  0  0  0  0  0
    0.0000    0.0000    0.0000 C   0  0  0  0  0  0  0  0  0  0  0  0
    0.0000    0.0000    0.0000 C   0  0  0  0  0  0  0  0  0  0  0  0
    0.0000    0.0000    0.0000 N   0  0  0  0  0  0  0  0  0  0  0  0
    0.0000    0.0000    0.0000 C   0  0  0  0  0  0  0  0  0  0  0  0
    0.0000    0.0000    0.0000 N   0  0  0  0  0  0  0  0  0  0  0  0
    0.0000    0.0000    0.0000 N   0  0  0  0  0  0  0  0  0  0  0  0
  1  2  1  0
  2  3  1  0
  3  4  2  0
  4  5  1  0
  5  6  2  0
  6  7  1  0
  6  8  1  0
  8  9  2  0
  9 10  1  0
 10 11  1  0
 11 12  1  0
 12 13  2  0
 13 14  1  0
 14 15  1  0
 15 16  2  0
 15 17  1  0
 12 18  1  0
 18 19  2  0
 19 20  1  0
 20 21  2  0
 21 22  1  0
 22 23  1  0
 22 24  2  0
  9  3  1  0
 14 10  2  0
 24 18  1  0
M  END
>  <pIC50>  (678) 
6.68

>  <ChEMBL_ID>  (678) 
CHEMBL3330129

>  <document_journal>  (678) 
Bioorg. Med. Chem.

>  <bao_endpoint>  (678) 
BAO_0000190

>  <potential_duplicate>  (678) 
False

>  <uo_units>  (678) 
UO_0000065

>  <canonical_smiles>  (678) 
CCc1ccc(Cl)cc1c2[nH]c(cc2C(=O)N)c3ccnc(N)n3

>  <parent_molecule_chembl_id>  (678) 
CHEMBL3330129

>  <assay_type>  (678) 
B

>  <src_id>  (678) 
1

>  <ligand_efficiency>  (678) 
{u'le': u'0.38', u'bei': u'19.54', u'sei': u'6.03', u'lle': u'3.1'}

>  <standard_flag>  (678) 
True

>  <molecule_chembl_id>  (678) 
CHEMBL3330129

>  <target_organism>  (678) 
Homo sapiens

>  <standard_units>  (678) 
nM

>  <record_id>  (678) 
2267746

>  <document_chembl_id>  (678) 
CHEMBL3352511

>  <bao_format>  (678) 
BAO_0000219

>  <data_validity_description>  (678) 
None

>  <activity_id>  (678) 
15063513

>  <standard_type>  (678) 
IC50

>  <target_chembl_id>  (678) 
CHEMBL1862

>  <data_validity_comment>  (678) 
None

>  <published_value>  (678) 
0.21

>  <document_year>  (678) 
2014

>  <target_pref_name>  (678) 
Tyrosine-protein kinase ABL

>  <assay_chembl_id>  (678) 
CHEMBL3374497

>  <standard_relation>  (678) 
=

>  <assay_description>  (678) 
Inhibition of JAK2 V617F mutant in human SET2 cells

>  <published_relation>  (678) 
=

>  <standard_value>  (678) 
210

>  <qudt_units>  (678) 
http://www.openphacts.org/units/Nanomolar

>  <target_tax_id>  (678) 
9606

>  <bao_label>  (678) 
cell-based format

>  <published_units>  (678) 
uM

>  <pchembl_value>  (678) 
6.68

>  <published_type>  (678) 
IC50

>  <activity_comment>  (678) 
None

$$$$

     RDKit          

 27 29  0  0  0  0  0  0  0  0999 V2000
    0.0000    0.0000    0.0000 C   0  0  0  0  0  0  0  0  0  0  0  0
    0.0000    0.0000    0.0000 C   0  0  0  0  0  0  0  0  0  0  0  0
    0.0000    0.0000    0.0000 C   0  0  0  0  0  0  0  0  0  0  0  0
    0.0000    0.0000    0.0000 C   0  0  0  0  0  0  0  0  0  0  0  0
    0.0000    0.0000    0.0000 C   0  0  0  0  0  0  0  0  0  0  0  0
    0.0000    0.0000    0.0000 C   0  0  0  0  0  0  0  0  0  0  0  0
    0.0000    0.0000    0.0000 C   0  0  0  0  0  0  0  0  0  0  0  0
    0.0000    0.0000    0.0000 C   0  0  0  0  0  0  0  0  0  0  0  0
    0.0000    0.0000    0.0000 C   0  0  0  0  0  0  0  0  0  0  0  0
    0.0000    0.0000    0.0000 N   0  0  0  0  0  0  0  0  0  0  0  0
    0.0000    0.0000    0.0000 C   0  0  0  0  0  0  0  0  0  0  0  0
    0.0000    0.0000    0.0000 C   0  0  0  0  0  0  0  0  0  0  0  0
    0.0000    0.0000    0.0000 C   0  0  0  0  0  0  0  0  0  0  0  0
    0.0000    0.0000    0.0000 C   0  0  0  0  0  0  0  0  0  0  0  0
    0.0000    0.0000    0.0000 O   0  0  0  0  0  0  0  0  0  0  0  0
    0.0000    0.0000    0.0000 N   0  0  0  0  0  0  0  0  0  0  0  0
    0.0000    0.0000    0.0000 C   0  0  0  0  0  0  0  0  0  0  0  0
    0.0000    0.0000    0.0000 C   0  0  0  0  0  0  0  0  0  0  0  0
    0.0000    0.0000    0.0000 C   0  0  0  0  0  0  0  0  0  0  0  0
    0.0000    0.0000    0.0000 N   0  0  0  0  0  0  0  0  0  0  0  0
    0.0000    0.0000    0.0000 C   0  0  0  0  0  0  0  0  0  0  0  0
    0.0000    0.0000    0.0000 N   0  0  0  0  0  0  0  0  0  0  0  0
    0.0000    0.0000    0.0000 N   0  0  0  0  0  0  0  0  0  0  0  0
    0.0000    0.0000    0.0000 C   0  0  0  0  0  0  0  0  0  0  0  0
    0.0000    0.0000    0.0000 F   0  0  0  0  0  0  0  0  0  0  0  0
    0.0000    0.0000    0.0000 F   0  0  0  0  0  0  0  0  0  0  0  0
    0.0000    0.0000    0.0000 F   0  0  0  0  0  0  0  0  0  0  0  0
  1  2  1  0
  2  3  1  0
  3  4  2  0
  4  5  1  0
  5  6  2  0
  6  7  1  0
  7  8  2  0
  8  9  1  0
  9 10  1  0
 10 11  1  0
 11 12  2  0
 12 13  1  0
 13 14  1  0
 14 15  2  0
 14 16  1  0
 11 17  1  0
 17 18  2  0
 18 19  1  0
 19 20  2  0
 20 21  1  0
 21 22  1  0
 21 23  2  0
  6 24  1  0
 24 25  1  0
 24 26  1  0
 24 27  1  0
  8  3  1  0
 13  9  2  0
 23 17  1  0
M  END
>  <pIC50>  (679) 
6.5

>  <ChEMBL_ID>  (679) 
CHEMBL3330130

>  <document_journal>  (679) 
Bioorg. Med. Chem.

>  <bao_endpoint>  (679) 
BAO_0000190

>  <potential_duplicate>  (679) 
False

>  <uo_units>  (679) 
UO_0000065

>  <canonical_smiles>  (679) 
CCc1ccc(cc1c2[nH]c(cc2C(=O)N)c3ccnc(N)n3)C(F)(F)F

>  <parent_molecule_chembl_id>  (679) 
CHEMBL3330130

>  <assay_type>  (679) 
B

>  <src_id>  (679) 
1

>  <ligand_efficiency>  (679) 
{u'le': u'0.33', u'bei': u'17.3', u'sei': u'5.87', u'lle': u'2.64'}

>  <standard_flag>  (679) 
True

>  <molecule_chembl_id>  (679) 
CHEMBL3330130

>  <target_organism>  (679) 
Homo sapiens

>  <standard_units>  (679) 
nM

>  <record_id>  (679) 
2267747

>  <document_chembl_id>  (679) 
CHEMBL3352511

>  <bao_format>  (679) 
BAO_0000219

>  <data_validity_description>  (679) 
None

>  <activity_id>  (679) 
15063514

>  <standard_type>  (679) 
IC50

>  <target_chembl_id>  (679) 
CHEMBL1862

>  <data_validity_comment>  (679) 
None

>  <published_value>  (679) 
0.32

>  <document_year>  (679) 
2014

>  <target_pref_name>  (679) 
Tyrosine-protein kinase ABL

>  <assay_chembl_id>  (679) 
CHEMBL3374497

>  <standard_relation>  (679) 
=

>  <assay_description>  (679) 
Inhibition of JAK2 V617F mutant in human SET2 cells

>  <published_relation>  (679) 
=

>  <standard_value>  (679) 
320

>  <qudt_units>  (679) 
http://www.openphacts.org/units/Nanomolar

>  <target_tax_id>  (679) 
9606

>  <bao_label>  (679) 
cell-based format

>  <published_units>  (679) 
uM

>  <pchembl_value>  (679) 
6.5

>  <published_type>  (679) 
IC50

>  <activity_comment>  (679) 
None

$$$$

     RDKit          

 31 33  0  0  0  0  0  0  0  0999 V2000
    0.0000    0.0000    0.0000 C   0  0  0  0  0  0  0  0  0  0  0  0
    0.0000    0.0000    0.0000 O   0  0  0  0  0  0  0  0  0  0  0  0
    0.0000    0.0000    0.0000 C   0  0  0  0  0  0  0  0  0  0  0  0
    0.0000    0.0000    0.0000 C   0  0  0  0  0  0  0  0  0  0  0  0
    0.0000    0.0000    0.0000 C   0  0  0  0  0  0  0  0  0  0  0  0
    0.0000    0.0000    0.0000 N   0  0  0  0  0  0  0  0  0  0  0  0
    0.0000    0.0000    0.0000 C   0  0  0  0  0  0  0  0  0  0  0  0
    0.0000    0.0000    0.0000 N   0  0  0  0  0  0  0  0  0  0  0  0
    0.0000    0.0000    0.0000 C   0  0  0  0  0  0  0  0  0  0  0  0
    0.0000    0.0000    0.0000 N   0  0  0  0  0  0  0  0  0  0  0  0
    0.0000    0.0000    0.0000 C   0  0  0  0  0  0  0  0  0  0  0  0
    0.0000    0.0000    0.0000 C   0  0  0  0  0  0  0  0  0  0  0  0
    0.0000    0.0000    0.0000 C   0  0  0  0  0  0  0  0  0  0  0  0
    0.0000    0.0000    0.0000 C   0  0  0  0  0  0  0  0  0  0  0  0
    0.0000    0.0000    0.0000 F   0  0  0  0  0  0  0  0  0  0  0  0
    0.0000    0.0000    0.0000 C   0  0  0  0  0  0  0  0  0  0  0  0
    0.0000    0.0000    0.0000 Cl  0  0  0  0  0  0  0  0  0  0  0  0
    0.0000    0.0000    0.0000 C   0  0  0  0  0  0  0  0  0  0  0  0
    0.0000    0.0000    0.0000 C   0  0  0  0  0  0  0  0  0  0  0  0
    0.0000    0.0000    0.0000 C   0  0  0  0  0  0  0  0  0  0  0  0
    0.0000    0.0000    0.0000 C   0  0  0  0  0  0  0  0  0  0  0  0
    0.0000    0.0000    0.0000 N   0  0  0  0  0  0  0  0  0  0  0  0
    0.0000    0.0000    0.0000 C   0  0  0  0  0  0  0  0  0  0  0  0
    0.0000    0.0000    0.0000 O   0  0  0  0  0  0  0  0  0  0  0  0
    0.0000    0.0000    0.0000 C   0  0  0  0  0  0  0  0  0  0  0  0
    0.0000    0.0000    0.0000 C   0  0  0  0  0  0  0  0  0  0  0  0
    0.0000    0.0000    0.0000 C   0  0  0  0  0  0  0  0  0  0  0  0
    0.0000    0.0000    0.0000 N   0  0  0  0  0  0  0  0  0  0  0  0
    0.0000    0.0000    0.0000 C   0  0  0  0  0  0  0  0  0  0  0  0
    0.0000    0.0000    0.0000 C   0  0  0  0  0  0  0  0  0  0  0  0
    0.0000    0.0000    0.0000 F   0  0  0  0  0  0  0  0  0  0  0  0
  1  2  1  0
  2  3  1  0
  3  4  2  0
  4  5  1  0
  5  6  2  0
  6  7  1  0
  7  8  2  0
  8  9  1  0
  9 10  1  0
 10 11  1  0
 11 12  2  0
 12 13  1  0
 13 14  2  0
 14 15  1  0
 14 16  1  0
 16 17  1  0
 16 18  2  0
  9 19  2  0
 19 20  1  0
 20 21  2  0
 21 22  1  0
 22 23  1  0
 23 24  2  0
 23 25  1  0
 25 26  2  0
 26 27  1  0
 27 28  1  0
 28 29  1  0
 28 30  1  0
 25 31  1  0
 21  3  1  0
 19  5  1  0
 18 11  1  0
M  END
>  <pIC50>  (680) 
5.65

>  <ChEMBL_ID>  (680) 
CHEMBL3357634

>  <document_journal>  (680) 
J. Med. Chem.

>  <bao_endpoint>  (680) 
BAO_0000190

>  <potential_duplicate>  (680) 
False

>  <uo_units>  (680) 
UO_0000065

>  <canonical_smiles>  (680) 
COc1cc2ncnc(Nc3ccc(F)c(Cl)c3)c2cc1NC(=O)\C(=C\CN(C)C)\F

>  <parent_molecule_chembl_id>  (680) 
CHEMBL3357634

>  <assay_type>  (680) 
B

>  <src_id>  (680) 
1

>  <ligand_efficiency>  (680) 
{u'le': u'0.25', u'bei': u'12.61', u'sei': u'7.11', u'lle': u'1.6'}

>  <standard_flag>  (680) 
True

>  <molecule_chembl_id>  (680) 
CHEMBL3357634

>  <target_organism>  (680) 
Homo sapiens

>  <standard_units>  (680) 
nM

>  <record_id>  (680) 
2260495

>  <document_chembl_id>  (680) 
CHEMBL3351667

>  <bao_format>  (680) 
BAO_0000357

>  <data_validity_description>  (680) 
None

>  <activity_id>  (680) 
15107862

>  <standard_type>  (680) 
IC50

>  <target_chembl_id>  (680) 
CHEMBL1862

>  <data_validity_comment>  (680) 
None

>  <published_value>  (680) 
2262

>  <document_year>  (680) 
2014

>  <target_pref_name>  (680) 
Tyrosine-protein kinase ABL

>  <assay_chembl_id>  (680) 
CHEMBL3385827

>  <standard_relation>  (680) 
=

>  <assay_description>  (680) 
Inhibition of wild type ABL (unknown origin) incubated for 5 mins by HTRF assay

>  <published_relation>  (680) 
=

>  <standard_value>  (680) 
2262

>  <qudt_units>  (680) 
http://www.openphacts.org/units/Nanomolar

>  <target_tax_id>  (680) 
9606

>  <bao_label>  (680) 
single protein format

>  <published_units>  (680) 
nM

>  <pchembl_value>  (680) 
5.65

>  <published_type>  (680) 
IC50

>  <activity_comment>  (680) 
None

$$$$

     RDKit          

 30 33  0  0  0  0  0  0  0  0999 V2000
    0.0000    0.0000    0.0000 C   0  0  0  0  0  0  0  0  0  0  0  0
    0.0000    0.0000    0.0000 C   0  0  0  0  0  0  0  0  0  0  0  0
    0.0000    0.0000    0.0000 O   0  0  0  0  0  0  0  0  0  0  0  0
    0.0000    0.0000    0.0000 C   0  0  0  0  0  0  0  0  0  0  0  0
    0.0000    0.0000    0.0000 C   0  0  0  0  0  0  0  0  0  0  0  0
    0.0000    0.0000    0.0000 C   0  0  0  0  0  0  0  0  0  0  0  0
    0.0000    0.0000    0.0000 C   0  0  0  0  0  0  0  0  0  0  0  0
    0.0000    0.0000    0.0000 C   0  0  0  0  0  0  0  0  0  0  0  0
    0.0000    0.0000    0.0000 C   0  0  0  0  0  0  0  0  0  0  0  0
    0.0000    0.0000    0.0000 C   0  0  0  0  0  0  0  0  0  0  0  0
    0.0000    0.0000    0.0000 N   0  0  0  0  0  0  0  0  0  0  0  0
    0.0000    0.0000    0.0000 N   0  0  0  0  0  0  0  0  0  0  0  0
    0.0000    0.0000    0.0000 C   0  0  0  0  0  0  0  0  0  0  0  0
    0.0000    0.0000    0.0000 C   0  0  0  0  0  0  0  0  0  0  0  0
    0.0000    0.0000    0.0000 N   0  0  0  0  0  0  0  0  0  0  0  0
    0.0000    0.0000    0.0000 C   0  0  0  0  0  0  0  0  0  0  0  0
    0.0000    0.0000    0.0000 C   0  0  0  0  0  0  0  0  0  0  0  0
    0.0000    0.0000    0.0000 N   0  0  0  0  0  0  0  0  0  0  0  0
    0.0000    0.0000    0.0000 N   0  0  0  0  0  0  0  0  0  0  0  0
    0.0000    0.0000    0.0000 C   0  0  0  0  0  0  0  0  0  0  0  0
    0.0000    0.0000    0.0000 S   0  0  0  0  0  0  0  0  0  0  0  0
    0.0000    0.0000    0.0000 O   0  0  0  0  0  0  0  0  0  0  0  0
    0.0000    0.0000    0.0000 O   0  0  0  0  0  0  0  0  0  0  0  0
    0.0000    0.0000    0.0000 N   0  0  0  0  0  0  0  0  0  0  0  0
    0.0000    0.0000    0.0000 C   0  0  0  0  0  0  0  0  0  0  0  0
    0.0000    0.0000    0.0000 C   0  0  0  0  0  0  0  0  0  0  0  0
    0.0000    0.0000    0.0000 C   0  0  0  0  0  0  0  0  0  0  0  0
    0.0000    0.0000    0.0000 N   0  0  0  0  0  0  0  0  0  0  0  0
    0.0000    0.0000    0.0000 C   0  0  0  0  0  0  0  0  0  0  0  0
    0.0000    0.0000    0.0000 C   0  0  0  0  0  0  0  0  0  0  0  0
  1  2  1  0
  2  3  1  0
  3  4  1  0
  4  5  2  0
  5  6  1  0
  6  7  2  0
  7  8  1  0
  8  9  2  0
  9 10  1  0
 10 11  2  0
 11 12  1  0
 12 13  2  0
 13 14  1  0
 14 15  2  0
 14 16  1  0
 16 17  1  0
 16 18  2  0
 18 19  1  0
 19 20  1  0
  7 21  1  0
 21 22  2  0
 21 23  2  0
 21 24  1  0
 24 25  1  0
 25 26  1  0
 26 27  1  0
 27 28  1  0
 28 29  1  0
 29 30  1  0
  9  4  1  0
 15 10  1  0
 19 13  1  0
 30 24  1  0
M  END
>  <pIC50>  (681) 
5.23

>  <ChEMBL_ID>  (681) 
CHEMBL3261392

>  <document_journal>  (681) 
Bioorg. Med. Chem.

>  <bao_endpoint>  (681) 
BAO_0000190

>  <potential_duplicate>  (681) 
False

>  <uo_units>  (681) 
UO_0000065

>  <canonical_smiles>  (681) 
CCOc1ccc(cc1c2nnc3c(n2)c(C)nn3C)S(=O)(=O)N4CCCNCC4

>  <parent_molecule_chembl_id>  (681) 
CHEMBL3261392

>  <assay_type>  (681) 
B

>  <src_id>  (681) 
1

>  <ligand_efficiency>  (681) 
{u'le': u'0.24', u'bei': u'12.12', u'sei': u'4.23', u'lle': u'4.33'}

>  <standard_flag>  (681) 
True

>  <molecule_chembl_id>  (681) 
CHEMBL3261392

>  <target_organism>  (681) 
Homo sapiens

>  <standard_units>  (681) 
nM

>  <record_id>  (681) 
2282344

>  <document_chembl_id>  (681) 
CHEMBL3400118

>  <bao_format>  (681) 
BAO_0000357

>  <data_validity_description>  (681) 
None

>  <activity_id>  (681) 
15179191

>  <standard_type>  (681) 
IC50

>  <target_chembl_id>  (681) 
CHEMBL1862

>  <data_validity_comment>  (681) 
None

>  <published_value>  (681) 
5.9

>  <document_year>  (681) 
2015

>  <target_pref_name>  (681) 
Tyrosine-protein kinase ABL

>  <assay_chembl_id>  (681) 
CHEMBL3407087

>  <standard_relation>  (681) 
=

>  <assay_description>  (681) 
Inhibition of Abl (unknown origin) using GGEAIYAAPFKK peptide as substrate by [gamma-33P]ATP assay

>  <published_relation>  (681) 
=

>  <standard_value>  (681) 
5900

>  <qudt_units>  (681) 
http://www.openphacts.org/units/Nanomolar

>  <target_tax_id>  (681) 
9606

>  <bao_label>  (681) 
single protein format

>  <published_units>  (681) 
uM

>  <pchembl_value>  (681) 
5.23

>  <published_type>  (681) 
IC50

>  <activity_comment>  (681) 
None

$$$$

     RDKit          

 28 31  0  0  0  0  0  0  0  0999 V2000
    0.0000    0.0000    0.0000 C   0  0  0  0  0  0  0  0  0  0  0  0
    0.0000    0.0000    0.0000 N   0  0  0  0  0  0  0  0  0  0  0  0
    0.0000    0.0000    0.0000 C   0  0  0  0  0  0  0  0  0  0  0  0
    0.0000    0.0000    0.0000 C   0  0  0  0  0  0  0  0  0  0  0  0
    0.0000    0.0000    0.0000 N   0  0  0  0  0  0  0  0  0  0  0  0
    0.0000    0.0000    0.0000 C   0  0  0  0  0  0  0  0  0  0  0  0
    0.0000    0.0000    0.0000 C   0  0  0  0  0  0  0  0  0  0  0  0
    0.0000    0.0000    0.0000 C   0  0  0  0  0  0  0  0  0  0  0  0
    0.0000    0.0000    0.0000 C   0  0  0  0  0  0  0  0  0  0  0  0
    0.0000    0.0000    0.0000 C   0  0  0  0  0  0  0  0  0  0  0  0
    0.0000    0.0000    0.0000 C   0  0  0  0  0  0  0  0  0  0  0  0
    0.0000    0.0000    0.0000 N   0  0  0  0  0  0  0  0  0  0  0  0
    0.0000    0.0000    0.0000 C   0  0  0  0  0  0  0  0  0  0  0  0
    0.0000    0.0000    0.0000 N   0  0  0  0  0  0  0  0  0  0  0  0
    0.0000    0.0000    0.0000 C   0  0  0  0  0  0  0  0  0  0  0  0
    0.0000    0.0000    0.0000 C   0  0  0  0  0  0  0  0  0  0  0  0
    0.0000    0.0000    0.0000 Cl  0  0  0  0  0  0  0  0  0  0  0  0
    0.0000    0.0000    0.0000 C   0  0  0  0  0  0  0  0  0  0  0  0
    0.0000    0.0000    0.0000 N   0  0  0  0  0  0  0  0  0  0  0  0
    0.0000    0.0000    0.0000 C   0  0  0  0  0  0  0  0  0  0  0  0
    0.0000    0.0000    0.0000 C   0  0  0  0  0  0  0  0  0  0  0  0
    0.0000    0.0000    0.0000 C   0  0  0  0  0  0  0  0  0  0  0  0
    0.0000    0.0000    0.0000 C   0  0  0  0  0  0  0  0  0  0  0  0
    0.0000    0.0000    0.0000 C   0  0  0  0  0  0  0  0  0  0  0  0
    0.0000    0.0000    0.0000 O   0  0  0  0  0  0  0  0  0  0  0  0
    0.0000    0.0000    0.0000 N   0  0  0  0  0  0  0  0  0  0  0  0
    0.0000    0.0000    0.0000 C   0  0  0  0  0  0  0  0  0  0  0  0
    0.0000    0.0000    0.0000 C   0  0  0  0  0  0  0  0  0  0  0  0
  1  2  1  0
  2  3  1  0
  3  4  1  0
  4  5  1  0
  5  6  1  0
  6  7  1  0
  5  8  1  0
  8  9  2  0
  9 10  1  0
 10 11  2  0
 11 12  1  0
 12 13  1  0
 13 14  2  0
 14 15  1  0
 15 16  2  0
 16 17  1  0
 16 18  1  0
 18 19  1  0
 19 20  1  0
 20 21  1  0
 21 22  1  0
 22 23  1  0
 23 24  1  0
 24 25  1  0
 18 26  2  0
 11 27  1  0
 27 28  2  0
  7  2  1  0
 28  8  1  0
 26 13  1  0
 25 21  1  0
M  END
>  <pIC50>  (682) 
6.69

>  <ChEMBL_ID>  (682) 
CHEMBL3426891

>  <document_journal>  (682) 
J. Med. Chem.

>  <bao_endpoint>  (682) 
BAO_0000190

>  <potential_duplicate>  (682) 
False

>  <uo_units>  (682) 
UO_0000065

>  <canonical_smiles>  (682) 
CN1CCN(CC1)c2ccc(Nc3ncc(Cl)c(NC[C@H]4CCCO4)n3)cc2

>  <parent_molecule_chembl_id>  (682) 
CHEMBL3426891

>  <assay_type>  (682) 
B

>  <src_id>  (682) 
1

>  <ligand_efficiency>  (682) 
{u'le': u'0.33', u'bei': u'16.59', u'sei': u'10.2', u'lle': u'3.08'}

>  <standard_flag>  (682) 
True

>  <molecule_chembl_id>  (682) 
CHEMBL3426891

>  <target_organism>  (682) 
Homo sapiens

>  <standard_units>  (682) 
nM

>  <record_id>  (682) 
2297889

>  <document_chembl_id>  (682) 
CHEMBL3425491

>  <bao_format>  (682) 
BAO_0000357

>  <data_validity_description>  (682) 
None

>  <activity_id>  (682) 
15250046

>  <standard_type>  (682) 
IC50

>  <target_chembl_id>  (682) 
CHEMBL1862

>  <data_validity_comment>  (682) 
None

>  <published_value>  (682) 
206

>  <document_year>  (682) 
2015

>  <target_pref_name>  (682) 
Tyrosine-protein kinase ABL

>  <assay_chembl_id>  (682) 
CHEMBL3429147

>  <standard_relation>  (682) 
=

>  <assay_description>  (682) 
Inhibition of human ABL1 using EAIYAAPFAKKK peptide substrate by 33P Hotspot assay

>  <published_relation>  (682) 
=

>  <standard_value>  (682) 
206

>  <qudt_units>  (682) 
http://www.openphacts.org/units/Nanomolar

>  <target_tax_id>  (682) 
9606

>  <bao_label>  (682) 
single protein format

>  <published_units>  (682) 
nM

>  <pchembl_value>  (682) 
6.69

>  <published_type>  (682) 
IC50

>  <activity_comment>  (682) 
None

$$$$

     RDKit          

 31 33  0  0  0  0  0  0  0  0999 V2000
    0.0000    0.0000    0.0000 C   0  0  0  0  0  0  0  0  0  0  0  0
    0.0000    0.0000    0.0000 N   0  0  0  0  0  0  0  0  0  0  0  0
    0.0000    0.0000    0.0000 C   0  0  0  0  0  0  0  0  0  0  0  0
    0.0000    0.0000    0.0000 N   0  0  0  0  0  0  0  0  0  0  0  0
    0.0000    0.0000    0.0000 C   0  0  0  0  0  0  0  0  0  0  0  0
    0.0000    0.0000    0.0000 C   0  0  0  0  0  0  0  0  0  0  0  0
    0.0000    0.0000    0.0000 C   0  0  0  0  0  0  0  0  0  0  0  0
    0.0000    0.0000    0.0000 C   0  0  0  0  0  0  0  0  0  0  0  0
    0.0000    0.0000    0.0000 C   0  0  0  0  0  0  0  0  0  0  0  0
    0.0000    0.0000    0.0000 C   0  0  0  0  0  0  0  0  0  0  0  0
    0.0000    0.0000    0.0000 N   0  0  0  0  0  0  0  0  0  0  0  0
    0.0000    0.0000    0.0000 C   0  0  0  0  0  0  0  0  0  0  0  0
    0.0000    0.0000    0.0000 N   0  0  0  0  0  0  0  0  0  0  0  0
    0.0000    0.0000    0.0000 C   0  0  0  0  0  0  0  0  0  0  0  0
    0.0000    0.0000    0.0000 C   0  0  0  0  0  0  0  0  0  0  0  0
    0.0000    0.0000    0.0000 C   0  0  0  0  0  0  0  0  0  0  0  0
    0.0000    0.0000    0.0000 N   0  0  0  0  0  0  0  0  0  0  0  0
    0.0000    0.0000    0.0000 C   0  0  0  0  0  0  0  0  0  0  0  0
    0.0000    0.0000    0.0000 O   0  0  0  0  0  0  0  0  0  0  0  0
    0.0000    0.0000    0.0000 N   0  0  0  0  0  0  0  0  0  0  0  0
    0.0000    0.0000    0.0000 C   0  0  0  0  0  0  0  0  0  0  0  0
    0.0000    0.0000    0.0000 C   0  0  0  0  0  0  0  0  0  0  0  0
    0.0000    0.0000    0.0000 C   0  0  0  0  0  0  0  0  0  0  0  0
    0.0000    0.0000    0.0000 C   0  0  0  0  0  0  0  0  0  0  0  0
    0.0000    0.0000    0.0000 C   0  0  0  0  0  0  0  0  0  0  0  0
    0.0000    0.0000    0.0000 C   0  0  0  0  0  0  0  0  0  0  0  0
    0.0000    0.0000    0.0000 C   0  0  0  0  0  0  0  0  0  0  0  0
    0.0000    0.0000    0.0000 F   0  0  0  0  0  0  0  0  0  0  0  0
    0.0000    0.0000    0.0000 C   0  0  0  0  0  0  0  0  0  0  0  0
    0.0000    0.0000    0.0000 C   0  0  0  0  0  0  0  0  0  0  0  0
    0.0000    0.0000    0.0000 C   0  0  0  0  0  0  0  0  0  0  0  0
  1  2  1  0
  2  3  1  0
  3  4  2  0
  4  5  1  0
  5  6  2  0
  6  7  1  0
  7  8  2  0
  8  9  1  0
  9 10  1  0
  9 11  2  0
 11 12  1  0
 12 13  2  0
  8 14  1  0
 14 15  2  0
 15 16  1  0
 16 17  1  0
 17 18  1  0
 18 19  2  0
 18 20  1  0
 20 21  1  0
 21 22  1  0
 22 23  1  0
 23 24  1  0
 23 25  1  0
 23 26  1  0
 16 27  2  0
 27 28  1  0
 27 29  1  0
 29 30  2  0
 30 31  1  0
 13  3  1  0
 12  6  1  0
 30 14  1  0
M  END
>  <pIC50>  (683) 
6.42

>  <ChEMBL_ID>  (683) 
CHEMBL3577124

>  <document_journal>  (683) 
J. Med. Chem.

>  <bao_endpoint>  (683) 
BAO_0000190

>  <potential_duplicate>  (683) 
False

>  <uo_units>  (683) 
UO_0000065

>  <canonical_smiles>  (683) 
CNc1ncc2cc(c(C)nc2n1)c3cc(NC(=O)NCCC(C)(C)C)c(F)cc3C

>  <parent_molecule_chembl_id>  (683) 
CHEMBL3577124

>  <assay_type>  (683) 
B

>  <src_id>  (683) 
1

>  <ligand_efficiency>  (683) 
{u'le': u'0.28', u'bei': u'15.12', u'sei': u'6.99', u'lle': u'2.26'}

>  <standard_flag>  (683) 
True

>  <molecule_chembl_id>  (683) 
CHEMBL3577124

>  <target_organism>  (683) 
Homo sapiens

>  <standard_units>  (683) 
nM

>  <record_id>  (683) 
2479683

>  <document_chembl_id>  (683) 
CHEMBL3576847

>  <bao_format>  (683) 
BAO_0000219

>  <data_validity_description>  (683) 
None

>  <activity_id>  (683) 
15605125

>  <standard_type>  (683) 
IC50

>  <target_chembl_id>  (683) 
CHEMBL1862

>  <data_validity_comment>  (683) 
None

>  <published_value>  (683) 
380

>  <document_year>  (683) 
2015

>  <target_pref_name>  (683) 
Tyrosine-protein kinase ABL

>  <assay_chembl_id>  (683) 
CHEMBL3578506

>  <standard_relation>  (683) 
=

>  <assay_description>  (683) 
Competitive binding affinity to ABL in human A375 cells after 15 mins in presence of ATP analogue

>  <published_relation>  (683) 
=

>  <standard_value>  (683) 
380

>  <qudt_units>  (683) 
http://www.openphacts.org/units/Nanomolar

>  <target_tax_id>  (683) 
9606

>  <bao_label>  (683) 
cell-based format

>  <published_units>  (683) 
nM

>  <pchembl_value>  (683) 
6.42

>  <published_type>  (683) 
IC50

>  <activity_comment>  (683) 
None

$$$$

     RDKit          

 34 39  0  0  0  0  0  0  0  0999 V2000
    0.0000    0.0000    0.0000 O   0  0  0  0  0  0  0  0  0  0  0  0
    0.0000    0.0000    0.0000 C   0  0  0  0  0  0  0  0  0  0  0  0
    0.0000    0.0000    0.0000 C   0  0  0  0  0  0  0  0  0  0  0  0
    0.0000    0.0000    0.0000 C   0  0  0  0  0  0  0  0  0  0  0  0
    0.0000    0.0000    0.0000 N   0  0  0  0  0  0  0  0  0  0  0  0
    0.0000    0.0000    0.0000 C   0  0  0  0  0  0  0  0  0  0  0  0
    0.0000    0.0000    0.0000 C   0  0  0  0  0  0  0  0  0  0  0  0
    0.0000    0.0000    0.0000 C   0  0  0  0  0  0  0  0  0  0  0  0
    0.0000    0.0000    0.0000 C   0  0  0  0  0  0  0  0  0  0  0  0
    0.0000    0.0000    0.0000 C   0  0  0  0  0  0  0  0  0  0  0  0
    0.0000    0.0000    0.0000 C   0  0  0  0  0  0  0  0  0  0  0  0
    0.0000    0.0000    0.0000 C   0  0  0  0  0  0  0  0  0  0  0  0
    0.0000    0.0000    0.0000 N   0  0  0  0  0  0  0  0  0  0  0  0
    0.0000    0.0000    0.0000 C   0  0  0  0  0  0  0  0  0  0  0  0
    0.0000    0.0000    0.0000 C   0  0  0  0  0  0  0  0  0  0  0  0
    0.0000    0.0000    0.0000 N   0  0  0  0  0  0  0  0  0  0  0  0
    0.0000    0.0000    0.0000 C   0  0  0  0  0  0  0  0  0  0  0  0
    0.0000    0.0000    0.0000 C   0  0  0  0  0  0  0  0  0  0  0  0
    0.0000    0.0000    0.0000 C   0  0  0  0  0  0  0  0  0  0  0  0
    0.0000    0.0000    0.0000 C   0  0  0  0  0  0  0  0  0  0  0  0
    0.0000    0.0000    0.0000 N   0  0  0  0  0  0  0  0  0  0  0  0
    0.0000    0.0000    0.0000 N   0  0  0  0  0  0  0  0  0  0  0  0
    0.0000    0.0000    0.0000 N   0  0  0  0  0  0  0  0  0  0  0  0
    0.0000    0.0000    0.0000 C   0  0  0  0  0  0  0  0  0  0  0  0
    0.0000    0.0000    0.0000 C   0  0  0  0  0  0  0  0  0  0  0  0
    0.0000    0.0000    0.0000 C   0  0  0  0  0  0  0  0  0  0  0  0
    0.0000    0.0000    0.0000 C   0  0  0  0  0  0  0  0  0  0  0  0
    0.0000    0.0000    0.0000 C   0  0  0  0  0  0  0  0  0  0  0  0
    0.0000    0.0000    0.0000 C   0  0  0  0  0  0  0  0  0  0  0  0
    0.0000    0.0000    0.0000 C   0  0  0  0  0  0  0  0  0  0  0  0
    0.0000    0.0000    0.0000 C   0  0  0  0  0  0  0  0  0  0  0  0
    0.0000    0.0000    0.0000 C   0  0  0  0  0  0  0  0  0  0  0  0
    0.0000    0.0000    0.0000 F   0  0  0  0  0  0  0  0  0  0  0  0
    0.0000    0.0000    0.0000 C   0  0  0  0  0  0  0  0  0  0  0  0
  1  2  1  0
  2  3  1  0
  3  4  1  0
  4  5  1  0
  5  6  1  0
  6  7  1  0
  5  8  1  0
  8  9  2  0
  9 10  1  0
 10 11  2  0
 11 12  1  0
 12 13  2  0
 10 14  1  0
 14 15  2  0
 15 16  1  0
 16 17  2  0
 17 18  1  0
 18 19  2  0
 19 20  1  0
 20 21  2  0
 21 22  1  0
 20 23  1  0
 23 24  1  0
 24 25  1  0
 25 26  1  0
 26 27  1  0
 27 28  1  0
 28 29  2  0
 29 30  1  0
 30 31  2  0
 31 32  1  0
 32 33  1  0
 32 34  2  0
  7  2  1  0
 13  8  1  0
 22 14  1  0
 22 17  1  0
 27 23  1  0
 34 28  1  0
M  END
>  <pIC50>  (684) 
5.28

>  <ChEMBL_ID>  (684) 
CHEMBL3582442

>  <document_journal>  (684) 
ACS Med. Chem. Lett.

>  <bao_endpoint>  (684) 
BAO_0000190

>  <potential_duplicate>  (684) 
False

>  <uo_units>  (684) 
UO_0000065

>  <canonical_smiles>  (684) 
OC1CCN(CC1)c2cc(ccn2)c3cnc4ccc(nn34)N5CCC[C@@H]5c6cccc(F)c6

>  <parent_molecule_chembl_id>  (684) 
CHEMBL3582442

>  <assay_type>  (684) 
B

>  <src_id>  (684) 
1

>  <ligand_efficiency>  (684) 
{u'le': u'0.21', u'bei': u'11.52', u'sei': u'7.57', u'lle': u'1.27'}

>  <standard_flag>  (684) 
True

>  <molecule_chembl_id>  (684) 
CHEMBL3582442

>  <target_organism>  (684) 
Homo sapiens

>  <standard_units>  (684) 
nM

>  <record_id>  (684) 
2483389

>  <document_chembl_id>  (684) 
CHEMBL3580662

>  <bao_format>  (684) 
BAO_0000219

>  <data_validity_description>  (684) 
None

>  <activity_id>  (684) 
15616293

>  <standard_type>  (684) 
IC50

>  <target_chembl_id>  (684) 
CHEMBL1862

>  <data_validity_comment>  (684) 
None

>  <published_value>  (684) 
5.2

>  <document_year>  (684) 
2015

>  <target_pref_name>  (684) 
Tyrosine-protein kinase ABL

>  <assay_chembl_id>  (684) 
CHEMBL3583118

>  <standard_relation>  (684) 
=

>  <assay_description>  (684) 
Inhibition of BCR-fused ABL (unknown origin) expressed in mouse BA/F3 cells after 48 hrs by luciferase reporter gene assay in absence of recombinant mouse IL3

>  <published_relation>  (684) 
=

>  <standard_value>  (684) 
5200

>  <qudt_units>  (684) 
http://www.openphacts.org/units/Nanomolar

>  <target_tax_id>  (684) 
9606

>  <bao_label>  (684) 
cell-based format

>  <published_units>  (684) 
uM

>  <pchembl_value>  (684) 
5.28

>  <published_type>  (684) 
IC50

>  <activity_comment>  (684) 
None

$$$$

     RDKit          

 37 42  0  0  0  0  0  0  0  0999 V2000
    0.0000    0.0000    0.0000 O   0  0  0  0  0  0  0  0  0  0  0  0
    0.0000    0.0000    0.0000 C   0  0  0  0  0  0  0  0  0  0  0  0
    0.0000    0.0000    0.0000 O   0  0  0  0  0  0  0  0  0  0  0  0
    0.0000    0.0000    0.0000 C   0  0  0  0  0  0  0  0  0  0  0  0
    0.0000    0.0000    0.0000 N   0  0  0  0  0  0  0  0  0  0  0  0
    0.0000    0.0000    0.0000 C   0  0  0  0  0  0  0  0  0  0  0  0
    0.0000    0.0000    0.0000 C   0  0  0  0  0  0  0  0  0  0  0  0
    0.0000    0.0000    0.0000 N   0  0  0  0  0  0  0  0  0  0  0  0
    0.0000    0.0000    0.0000 C   0  0  0  0  0  0  0  0  0  0  0  0
    0.0000    0.0000    0.0000 C   0  0  0  0  0  0  0  0  0  0  0  0
    0.0000    0.0000    0.0000 C   0  0  0  0  0  0  0  0  0  0  0  0
    0.0000    0.0000    0.0000 C   0  0  0  0  0  0  0  0  0  0  0  0
    0.0000    0.0000    0.0000 C   0  0  0  0  0  0  0  0  0  0  0  0
    0.0000    0.0000    0.0000 C   0  0  0  0  0  0  0  0  0  0  0  0
    0.0000    0.0000    0.0000 C   0  0  0  0  0  0  0  0  0  0  0  0
    0.0000    0.0000    0.0000 N   0  0  0  0  0  0  0  0  0  0  0  0
    0.0000    0.0000    0.0000 C   0  0  0  0  0  0  0  0  0  0  0  0
    0.0000    0.0000    0.0000 C   0  0  0  0  0  0  0  0  0  0  0  0
    0.0000    0.0000    0.0000 N   0  0  0  0  0  0  0  0  0  0  0  0
    0.0000    0.0000    0.0000 C   0  0  0  0  0  0  0  0  0  0  0  0
    0.0000    0.0000    0.0000 C   0  0  0  0  0  0  0  0  0  0  0  0
    0.0000    0.0000    0.0000 C   0  0  0  0  0  0  0  0  0  0  0  0
    0.0000    0.0000    0.0000 C   0  0  0  0  0  0  0  0  0  0  0  0
    0.0000    0.0000    0.0000 N   0  0  0  0  0  0  0  0  0  0  0  0
    0.0000    0.0000    0.0000 N   0  0  0  0  0  0  0  0  0  0  0  0
    0.0000    0.0000    0.0000 N   0  0  0  0  0  0  0  0  0  0  0  0
    0.0000    0.0000    0.0000 C   0  0  0  0  0  0  0  0  0  0  0  0
    0.0000    0.0000    0.0000 C   0  0  0  0  0  0  0  0  0  0  0  0
    0.0000    0.0000    0.0000 C   0  0  0  0  0  0  0  0  0  0  0  0
    0.0000    0.0000    0.0000 C   0  0  0  0  0  0  0  0  0  0  0  0
    0.0000    0.0000    0.0000 C   0  0  0  0  0  0  0  0  0  0  0  0
    0.0000    0.0000    0.0000 C   0  0  0  0  0  0  0  0  0  0  0  0
    0.0000    0.0000    0.0000 C   0  0  0  0  0  0  0  0  0  0  0  0
    0.0000    0.0000    0.0000 C   0  0  0  0  0  0  0  0  0  0  0  0
    0.0000    0.0000    0.0000 C   0  0  0  0  0  0  0  0  0  0  0  0
    0.0000    0.0000    0.0000 F   0  0  0  0  0  0  0  0  0  0  0  0
    0.0000    0.0000    0.0000 C   0  0  0  0  0  0  0  0  0  0  0  0
  1  2  1  0
  2  3  2  0
  2  4  1  0
  4  5  1  0
  5  6  1  0
  6  7  1  0
  7  8  1  0
  8  9  1  0
  9 10  1  0
  8 11  1  0
 11 12  2  0
 12 13  1  0
 13 14  2  0
 14 15  1  0
 15 16  2  0
 13 17  1  0
 17 18  2  0
 18 19  1  0
 19 20  2  0
 20 21  1  0
 21 22  2  0
 22 23  1  0
 23 24  2  0
 24 25  1  0
 23 26  1  0
 26 27  1  0
 27 28  1  0
 28 29  1  0
 29 30  1  0
 30 31  1  0
 31 32  2  0
 32 33  1  0
 33 34  2  0
 34 35  1  0
 35 36  1  0
 35 37  2  0
 10  5  1  0
 16 11  1  0
 25 17  1  0
 25 20  1  0
 30 26  1  0
 37 31  1  0
M  END
>  <pIC50>  (685) 
5.62

>  <ChEMBL_ID>  (685) 
CHEMBL3582441

>  <document_journal>  (685) 
ACS Med. Chem. Lett.

>  <bao_endpoint>  (685) 
BAO_0000190

>  <potential_duplicate>  (685) 
False

>  <uo_units>  (685) 
UO_0000065

>  <canonical_smiles>  (685) 
OC(=O)CN1CCN(CC1)c2cc(ccn2)c3cnc4ccc(nn34)N5CCC[C@@H]5c6cccc(F)c6

>  <parent_molecule_chembl_id>  (685) 
CHEMBL3582441

>  <assay_type>  (685) 
B

>  <src_id>  (685) 
1

>  <ligand_efficiency>  (685) 
{u'le': u'0.21', u'bei': u'11.2', u'sei': u'6.24', u'lle': u'4.64'}

>  <standard_flag>  (685) 
True

>  <molecule_chembl_id>  (685) 
CHEMBL3582441

>  <target_organism>  (685) 
Homo sapiens

>  <standard_units>  (685) 
nM

>  <record_id>  (685) 
2483388

>  <document_chembl_id>  (685) 
CHEMBL3580662

>  <bao_format>  (685) 
BAO_0000219

>  <data_validity_description>  (685) 
None

>  <activity_id>  (685) 
15616294

>  <standard_type>  (685) 
IC50

>  <target_chembl_id>  (685) 
CHEMBL1862

>  <data_validity_comment>  (685) 
None

>  <published_value>  (685) 
2.4

>  <document_year>  (685) 
2015

>  <target_pref_name>  (685) 
Tyrosine-protein kinase ABL

>  <assay_chembl_id>  (685) 
CHEMBL3583118

>  <standard_relation>  (685) 
=

>  <assay_description>  (685) 
Inhibition of BCR-fused ABL (unknown origin) expressed in mouse BA/F3 cells after 48 hrs by luciferase reporter gene assay in absence of recombinant mouse IL3

>  <published_relation>  (685) 
=

>  <standard_value>  (685) 
2400

>  <qudt_units>  (685) 
http://www.openphacts.org/units/Nanomolar

>  <target_tax_id>  (685) 
9606

>  <bao_label>  (685) 
cell-based format

>  <published_units>  (685) 
uM

>  <pchembl_value>  (685) 
5.62

>  <published_type>  (685) 
IC50

>  <activity_comment>  (685) 
None

$$$$

     RDKit          

 25 28  0  0  0  0  0  0  0  0999 V2000
    0.0000    0.0000    0.0000 N   0  0  0  0  0  0  0  0  0  0  0  0
    0.0000    0.0000    0.0000 C   0  0  0  0  0  0  0  0  0  0  0  0
    0.0000    0.0000    0.0000 C   0  0  0  0  0  0  0  0  0  0  0  0
    0.0000    0.0000    0.0000 C   0  0  0  0  0  0  0  0  0  0  0  0
    0.0000    0.0000    0.0000 C   0  0  0  0  0  0  0  0  0  0  0  0
    0.0000    0.0000    0.0000 C   0  0  0  0  0  0  0  0  0  0  0  0
    0.0000    0.0000    0.0000 C   0  0  0  0  0  0  0  0  0  0  0  0
    0.0000    0.0000    0.0000 C   0  0  0  0  0  0  0  0  0  0  0  0
    0.0000    0.0000    0.0000 C   0  0  0  0  0  0  0  0  0  0  0  0
    0.0000    0.0000    0.0000 C   0  0  0  0  0  0  0  0  0  0  0  0
    0.0000    0.0000    0.0000 N   0  0  0  0  0  0  0  0  0  0  0  0
    0.0000    0.0000    0.0000 C   0  0  0  0  0  0  0  0  0  0  0  0
    0.0000    0.0000    0.0000 C   0  0  0  0  0  0  0  0  0  0  0  0
    0.0000    0.0000    0.0000 C   0  0  0  0  0  0  0  0  0  0  0  0
    0.0000    0.0000    0.0000 C   0  0  0  0  0  0  0  0  0  0  0  0
    0.0000    0.0000    0.0000 N   0  0  0  0  0  0  0  0  0  0  0  0
    0.0000    0.0000    0.0000 C   0  0  0  0  0  0  0  0  0  0  0  0
    0.0000    0.0000    0.0000 C   0  0  0  0  0  0  0  0  0  0  0  0
    0.0000    0.0000    0.0000 C   0  0  0  0  0  0  0  0  0  0  0  0
    0.0000    0.0000    0.0000 C   0  0  0  0  0  0  0  0  0  0  0  0
    0.0000    0.0000    0.0000 C   0  0  0  0  0  0  0  0  0  0  0  0
    0.0000    0.0000    0.0000 C   0  0  0  0  0  0  0  0  0  0  0  0
    0.0000    0.0000    0.0000 C   0  0  0  0  0  0  0  0  0  0  0  0
    0.0000    0.0000    0.0000 N   0  0  0  0  0  0  0  0  0  0  0  0
    0.0000    0.0000    0.0000 N   0  0  0  0  0  0  0  0  0  0  0  0
  1  2  3  0
  2  3  1  0
  3  4  2  0
  4  5  1  0
  5  6  2  0
  6  7  1  0
  7  8  2  0
  6  9  1  0
  9 10  2  0
 10 11  1  0
 11 12  2  0
 12 13  1  0
 13 14  2  0
 14 15  1  0
 15 16  1  0
 16 17  1  0
 17 18  1  0
 18 19  2  0
 19 20  1  0
 20 21  2  0
 21 22  1  0
 22 23  2  0
 15 24  2  0
 24 25  1  0
  8  3  1  0
 25  9  1  0
 25 12  1  0
 23 18  1  0
M  END
>  <pIC50>  (686) 
5.42

>  <ChEMBL_ID>  (686) 
CHEMBL3582427

>  <document_journal>  (686) 
ACS Med. Chem. Lett.

>  <bao_endpoint>  (686) 
BAO_0000190

>  <potential_duplicate>  (686) 
False

>  <uo_units>  (686) 
UO_0000065

>  <canonical_smiles>  (686) 
N#Cc1ccc(cc1)c2cnc3ccc(NCc4ccccc4)nn23

>  <parent_molecule_chembl_id>  (686) 
CHEMBL3582427

>  <assay_type>  (686) 
B

>  <src_id>  (686) 
1

>  <ligand_efficiency>  (686) 
{u'le': u'0.3', u'bei': u'16.66', u'sei': u'8.21', u'lle': u'1.56'}

>  <standard_flag>  (686) 
True

>  <molecule_chembl_id>  (686) 
CHEMBL3582427

>  <target_organism>  (686) 
Homo sapiens

>  <standard_units>  (686) 
nM

>  <record_id>  (686) 
2483373

>  <document_chembl_id>  (686) 
CHEMBL3580662

>  <bao_format>  (686) 
BAO_0000219

>  <data_validity_description>  (686) 
None

>  <activity_id>  (686) 
15616295

>  <standard_type>  (686) 
IC50

>  <target_chembl_id>  (686) 
CHEMBL1862

>  <data_validity_comment>  (686) 
None

>  <published_value>  (686) 
3.8

>  <document_year>  (686) 
2015

>  <target_pref_name>  (686) 
Tyrosine-protein kinase ABL

>  <assay_chembl_id>  (686) 
CHEMBL3583118

>  <standard_relation>  (686) 
=

>  <assay_description>  (686) 
Inhibition of BCR-fused ABL (unknown origin) expressed in mouse BA/F3 cells after 48 hrs by luciferase reporter gene assay in absence of recombinant mouse IL3

>  <published_relation>  (686) 
=

>  <standard_value>  (686) 
3800

>  <qudt_units>  (686) 
http://www.openphacts.org/units/Nanomolar

>  <target_tax_id>  (686) 
9606

>  <bao_label>  (686) 
cell-based format

>  <published_units>  (686) 
uM

>  <pchembl_value>  (686) 
5.42

>  <published_type>  (686) 
IC50

>  <activity_comment>  (686) 
None

$$$$

     RDKit          

 37 41  0  0  0  0  0  0  0  0999 V2000
    0.0000    0.0000    0.0000 C   0  0  0  0  0  0  0  0  0  0  0  0
    0.0000    0.0000    0.0000 C   0  0  0  0  0  0  0  0  0  0  0  0
    0.0000    0.0000    0.0000 C   0  0  0  0  0  0  0  0  0  0  0  0
    0.0000    0.0000    0.0000 C   0  0  0  0  0  0  0  0  0  0  0  0
    0.0000    0.0000    0.0000 C   0  0  0  0  0  0  0  0  0  0  0  0
    0.0000    0.0000    0.0000 N   0  0  0  0  0  0  0  0  0  0  0  0
    0.0000    0.0000    0.0000 C   0  0  0  0  0  0  0  0  0  0  0  0
    0.0000    0.0000    0.0000 O   0  0  0  0  0  0  0  0  0  0  0  0
    0.0000    0.0000    0.0000 C   0  0  0  0  0  0  0  0  0  0  0  0
    0.0000    0.0000    0.0000 C   0  0  0  0  0  0  0  0  0  0  0  0
    0.0000    0.0000    0.0000 C   0  0  0  0  0  0  0  0  0  0  0  0
    0.0000    0.0000    0.0000 C   0  0  0  0  0  0  0  0  0  0  0  0
    0.0000    0.0000    0.0000 C   0  0  0  0  0  0  0  0  0  0  0  0
    0.0000    0.0000    0.0000 N   0  0  0  0  0  0  0  0  0  0  0  0
    0.0000    0.0000    0.0000 C   0  0  0  0  0  0  0  0  0  0  0  0
    0.0000    0.0000    0.0000 C   0  0  0  0  0  0  0  0  0  0  0  0
    0.0000    0.0000    0.0000 N   0  0  0  0  0  0  0  0  0  0  0  0
    0.0000    0.0000    0.0000 C   0  0  0  0  0  0  0  0  0  0  0  0
    0.0000    0.0000    0.0000 C   0  0  0  0  0  0  0  0  0  0  0  0
    0.0000    0.0000    0.0000 O   0  0  0  0  0  0  0  0  0  0  0  0
    0.0000    0.0000    0.0000 C   0  0  0  0  0  0  0  0  0  0  0  0
    0.0000    0.0000    0.0000 C   0  0  0  0  0  0  0  0  0  0  0  0
    0.0000    0.0000    0.0000 C   0  0  0  0  0  0  0  0  0  0  0  0
    0.0000    0.0000    0.0000 C   0  0  0  0  0  0  0  0  0  0  0  0
    0.0000    0.0000    0.0000 C   0  0  0  0  0  0  0  0  0  0  0  0
    0.0000    0.0000    0.0000 C   0  0  0  0  0  0  0  0  0  0  0  0
    0.0000    0.0000    0.0000 N   0  0  0  0  0  0  0  0  0  0  0  0
    0.0000    0.0000    0.0000 C   0  0  0  0  0  0  0  0  0  0  0  0
    0.0000    0.0000    0.0000 C   0  0  0  0  0  0  0  0  0  0  0  0
    0.0000    0.0000    0.0000 C   0  0  0  0  0  0  0  0  0  0  0  0
    0.0000    0.0000    0.0000 N   0  0  0  0  0  0  0  0  0  0  0  0
    0.0000    0.0000    0.0000 C   0  0  0  0  0  0  0  0  0  0  0  0
    0.0000    0.0000    0.0000 C   0  0  0  0  0  0  0  0  0  0  0  0
    0.0000    0.0000    0.0000 C   0  0  0  0  0  0  0  0  0  0  0  0
    0.0000    0.0000    0.0000 C   0  0  0  0  0  0  0  0  0  0  0  0
    0.0000    0.0000    0.0000 N   0  0  0  0  0  0  0  0  0  0  0  0
    0.0000    0.0000    0.0000 C   0  0  0  0  0  0  0  0  0  0  0  0
  1  2  1  0
  2  3  2  0
  3  4  1  0
  4  5  2  0
  5  6  1  0
  6  7  1  0
  7  8  2  0
  7  9  1  0
  9 10  2  0
 10 11  1  0
 11 12  2  0
 12 13  1  0
 13 14  1  0
 14 15  1  0
 15 16  1  0
 16 17  1  0
 17 18  1  0
 18 19  1  0
 19 20  1  0
 17 21  1  0
 21 22  1  0
 12 23  1  0
 23 24  2  0
  5 25  1  0
 25 26  2  0
 26 27  1  0
 27 28  1  0
 28 29  2  0
 29 30  1  0
 30 31  2  0
 29 32  1  0
 32 33  2  0
 33 34  1  0
 34 35  2  0
 35 36  1  0
 36 37  2  0
 26  2  1  0
 24  9  1  0
 22 14  1  0
 31 27  1  0
 37 32  1  0
M  END
>  <pIC50>  (687) 
6.76

>  <ChEMBL_ID>  (687) 
CHEMBL3597702

>  <document_journal>  (687) 
Bioorg. Med. Chem.

>  <bao_endpoint>  (687) 
BAO_0000190

>  <potential_duplicate>  (687) 
False

>  <uo_units>  (687) 
UO_0000065

>  <canonical_smiles>  (687) 
Cc1ccc(NC(=O)c2ccc(CN3CCN(CCO)CC3)cc2)cc1n4cc(cn4)c5cccnc5

>  <parent_molecule_chembl_id>  (687) 
CHEMBL3597702

>  <assay_type>  (687) 
B

>  <src_id>  (687) 
1

>  <ligand_efficiency>  (687) 
{u'le': u'0.25', u'bei': u'13.6', u'sei': u'7.81', u'lle': u'3.57'}

>  <standard_flag>  (687) 
True

>  <molecule_chembl_id>  (687) 
CHEMBL3597702

>  <target_organism>  (687) 
Homo sapiens

>  <standard_units>  (687) 
nM

>  <record_id>  (687) 
2491079

>  <document_chembl_id>  (687) 
CHEMBL3596095

>  <bao_format>  (687) 
BAO_0000357

>  <data_validity_description>  (687) 
None

>  <activity_id>  (687) 
15662910

>  <standard_type>  (687) 
IC50

>  <target_chembl_id>  (687) 
CHEMBL1862

>  <data_validity_comment>  (687) 
None

>  <published_value>  (687) 
175.3

>  <document_year>  (687) 
2015

>  <target_pref_name>  (687) 
Tyrosine-protein kinase ABL

>  <assay_chembl_id>  (687) 
CHEMBL3600047

>  <standard_relation>  (687) 
=

>  <assay_description>  (687) 
Inhibition of BCR-ABL1 (unknown origin) assessed as ATP remaining by Kinase-Glo luminescent kinase assay

>  <published_relation>  (687) 
=

>  <standard_value>  (687) 
175.3

>  <qudt_units>  (687) 
http://www.openphacts.org/units/Nanomolar

>  <target_tax_id>  (687) 
9606

>  <bao_label>  (687) 
single protein format

>  <published_units>  (687) 
nM

>  <pchembl_value>  (687) 
6.76

>  <published_type>  (687) 
IC50

>  <activity_comment>  (687) 
None

$$$$

     RDKit          

 36 40  0  0  0  0  0  0  0  0999 V2000
    0.0000    0.0000    0.0000 C   0  0  0  0  0  0  0  0  0  0  0  0
    0.0000    0.0000    0.0000 C   0  0  0  0  0  0  0  0  0  0  0  0
    0.0000    0.0000    0.0000 N   0  0  0  0  0  0  0  0  0  0  0  0
    0.0000    0.0000    0.0000 C   0  0  0  0  0  0  0  0  0  0  0  0
    0.0000    0.0000    0.0000 C   0  0  0  0  0  0  0  0  0  0  0  0
    0.0000    0.0000    0.0000 N   0  0  0  0  0  0  0  0  0  0  0  0
    0.0000    0.0000    0.0000 C   0  0  0  0  0  0  0  0  0  0  0  0
    0.0000    0.0000    0.0000 C   0  0  0  0  0  0  0  0  0  0  0  0
    0.0000    0.0000    0.0000 C   0  0  0  0  0  0  0  0  0  0  0  0
    0.0000    0.0000    0.0000 C   0  0  0  0  0  0  0  0  0  0  0  0
    0.0000    0.0000    0.0000 C   0  0  0  0  0  0  0  0  0  0  0  0
    0.0000    0.0000    0.0000 C   0  0  0  0  0  0  0  0  0  0  0  0
    0.0000    0.0000    0.0000 C   0  0  0  0  0  0  0  0  0  0  0  0
    0.0000    0.0000    0.0000 C   0  0  0  0  0  0  0  0  0  0  0  0
    0.0000    0.0000    0.0000 O   0  0  0  0  0  0  0  0  0  0  0  0
    0.0000    0.0000    0.0000 N   0  0  0  0  0  0  0  0  0  0  0  0
    0.0000    0.0000    0.0000 C   0  0  0  0  0  0  0  0  0  0  0  0
    0.0000    0.0000    0.0000 C   0  0  0  0  0  0  0  0  0  0  0  0
    0.0000    0.0000    0.0000 C   0  0  0  0  0  0  0  0  0  0  0  0
    0.0000    0.0000    0.0000 C   0  0  0  0  0  0  0  0  0  0  0  0
    0.0000    0.0000    0.0000 C   0  0  0  0  0  0  0  0  0  0  0  0
    0.0000    0.0000    0.0000 C   0  0  0  0  0  0  0  0  0  0  0  0
    0.0000    0.0000    0.0000 C   0  0  0  0  0  0  0  0  0  0  0  0
    0.0000    0.0000    0.0000 N   0  0  0  0  0  0  0  0  0  0  0  0
    0.0000    0.0000    0.0000 C   0  0  0  0  0  0  0  0  0  0  0  0
    0.0000    0.0000    0.0000 C   0  0  0  0  0  0  0  0  0  0  0  0
    0.0000    0.0000    0.0000 C   0  0  0  0  0  0  0  0  0  0  0  0
    0.0000    0.0000    0.0000 N   0  0  0  0  0  0  0  0  0  0  0  0
    0.0000    0.0000    0.0000 C   0  0  0  0  0  0  0  0  0  0  0  0
    0.0000    0.0000    0.0000 C   0  0  0  0  0  0  0  0  0  0  0  0
    0.0000    0.0000    0.0000 C   0  0  0  0  0  0  0  0  0  0  0  0
    0.0000    0.0000    0.0000 C   0  0  0  0  0  0  0  0  0  0  0  0
    0.0000    0.0000    0.0000 N   0  0  0  0  0  0  0  0  0  0  0  0
    0.0000    0.0000    0.0000 C   0  0  0  0  0  0  0  0  0  0  0  0
    0.0000    0.0000    0.0000 C   0  0  0  0  0  0  0  0  0  0  0  0
    0.0000    0.0000    0.0000 C   0  0  0  0  0  0  0  0  0  0  0  0
  1  2  1  0
  2  3  1  0
  3  4  1  0
  4  5  1  0
  5  6  1  0
  6  7  1  0
  7  8  1  0
  8  9  2  0
  9 10  1  0
 10 11  2  0
 11 12  1  0
 12 13  2  0
 11 14  1  0
 14 15  2  0
 14 16  1  0
 16 17  1  0
 17 18  2  0
 18 19  1  0
 19 20  2  0
 20 21  1  0
 20 22  1  0
 22 23  2  0
 22 24  1  0
 24 25  1  0
 25 26  2  0
 26 27  1  0
 27 28  2  0
 26 29  1  0
 29 30  2  0
 30 31  1  0
 31 32  2  0
 32 33  1  0
 33 34  2  0
  6 35  1  0
 35 36  1  0
 36  3  1  0
 13  8  1  0
 23 17  1  0
 28 24  1  0
 34 29  1  0
M  END
>  <pIC50>  (688) 
7.77

>  <ChEMBL_ID>  (688) 
CHEMBL3597701

>  <document_journal>  (688) 
Bioorg. Med. Chem.

>  <bao_endpoint>  (688) 
BAO_0000190

>  <potential_duplicate>  (688) 
False

>  <uo_units>  (688) 
UO_0000065

>  <canonical_smiles>  (688) 
CCN1CCN(Cc2ccc(cc2)C(=O)Nc3ccc(C)c(c3)n4cc(cn4)c5cccnc5)CC1

>  <parent_molecule_chembl_id>  (688) 
CHEMBL3597701

>  <assay_type>  (688) 
B

>  <src_id>  (688) 
1

>  <ligand_efficiency>  (688) 
{u'le': u'0.29', u'bei': u'16.17', u'sei': u'11.73', u'lle': u'3.7'}

>  <standard_flag>  (688) 
True

>  <molecule_chembl_id>  (688) 
CHEMBL3597701

>  <target_organism>  (688) 
Homo sapiens

>  <standard_units>  (688) 
nM

>  <record_id>  (688) 
2491078

>  <document_chembl_id>  (688) 
CHEMBL3596095

>  <bao_format>  (688) 
BAO_0000357

>  <data_validity_description>  (688) 
None

>  <activity_id>  (688) 
15662911

>  <standard_type>  (688) 
IC50

>  <target_chembl_id>  (688) 
CHEMBL1862

>  <data_validity_comment>  (688) 
None

>  <published_value>  (688) 
16.87

>  <document_year>  (688) 
2015

>  <target_pref_name>  (688) 
Tyrosine-protein kinase ABL

>  <assay_chembl_id>  (688) 
CHEMBL3600047

>  <standard_relation>  (688) 
=

>  <assay_description>  (688) 
Inhibition of BCR-ABL1 (unknown origin) assessed as ATP remaining by Kinase-Glo luminescent kinase assay

>  <published_relation>  (688) 
=

>  <standard_value>  (688) 
16.87

>  <qudt_units>  (688) 
http://www.openphacts.org/units/Nanomolar

>  <target_tax_id>  (688) 
9606

>  <bao_label>  (688) 
single protein format

>  <published_units>  (688) 
nM

>  <pchembl_value>  (688) 
7.77

>  <published_type>  (688) 
IC50

>  <activity_comment>  (688) 
None

$$$$

     RDKit          

 33 37  0  0  0  0  0  0  0  0999 V2000
    0.0000    0.0000    0.0000 C   0  0  0  0  0  0  0  0  0  0  0  0
    0.0000    0.0000    0.0000 C   0  0  0  0  0  0  0  0  0  0  0  0
    0.0000    0.0000    0.0000 C   0  0  0  0  0  0  0  0  0  0  0  0
    0.0000    0.0000    0.0000 C   0  0  0  0  0  0  0  0  0  0  0  0
    0.0000    0.0000    0.0000 C   0  0  0  0  0  0  0  0  0  0  0  0
    0.0000    0.0000    0.0000 N   0  0  0  0  0  0  0  0  0  0  0  0
    0.0000    0.0000    0.0000 C   0  0  0  0  0  0  0  0  0  0  0  0
    0.0000    0.0000    0.0000 O   0  0  0  0  0  0  0  0  0  0  0  0
    0.0000    0.0000    0.0000 C   0  0  0  0  0  0  0  0  0  0  0  0
    0.0000    0.0000    0.0000 C   0  0  0  0  0  0  0  0  0  0  0  0
    0.0000    0.0000    0.0000 C   0  0  0  0  0  0  0  0  0  0  0  0
    0.0000    0.0000    0.0000 C   0  0  0  0  0  0  0  0  0  0  0  0
    0.0000    0.0000    0.0000 C   0  0  0  0  0  0  0  0  0  0  0  0
    0.0000    0.0000    0.0000 N   0  0  0  0  0  0  0  0  0  0  0  0
    0.0000    0.0000    0.0000 C   0  0  0  0  0  0  0  0  0  0  0  0
    0.0000    0.0000    0.0000 C   0  0  0  0  0  0  0  0  0  0  0  0
    0.0000    0.0000    0.0000 C   0  0  0  0  0  0  0  0  0  0  0  0
    0.0000    0.0000    0.0000 C   0  0  0  0  0  0  0  0  0  0  0  0
    0.0000    0.0000    0.0000 C   0  0  0  0  0  0  0  0  0  0  0  0
    0.0000    0.0000    0.0000 C   0  0  0  0  0  0  0  0  0  0  0  0
    0.0000    0.0000    0.0000 C   0  0  0  0  0  0  0  0  0  0  0  0
    0.0000    0.0000    0.0000 C   0  0  0  0  0  0  0  0  0  0  0  0
    0.0000    0.0000    0.0000 N   0  0  0  0  0  0  0  0  0  0  0  0
    0.0000    0.0000    0.0000 C   0  0  0  0  0  0  0  0  0  0  0  0
    0.0000    0.0000    0.0000 C   0  0  0  0  0  0  0  0  0  0  0  0
    0.0000    0.0000    0.0000 C   0  0  0  0  0  0  0  0  0  0  0  0
    0.0000    0.0000    0.0000 N   0  0  0  0  0  0  0  0  0  0  0  0
    0.0000    0.0000    0.0000 C   0  0  0  0  0  0  0  0  0  0  0  0
    0.0000    0.0000    0.0000 C   0  0  0  0  0  0  0  0  0  0  0  0
    0.0000    0.0000    0.0000 C   0  0  0  0  0  0  0  0  0  0  0  0
    0.0000    0.0000    0.0000 C   0  0  0  0  0  0  0  0  0  0  0  0
    0.0000    0.0000    0.0000 N   0  0  0  0  0  0  0  0  0  0  0  0
    0.0000    0.0000    0.0000 C   0  0  0  0  0  0  0  0  0  0  0  0
  1  2  1  0
  2  3  2  0
  3  4  1  0
  4  5  2  0
  5  6  1  0
  6  7  1  0
  7  8  2  0
  7  9  1  0
  9 10  2  0
 10 11  1  0
 11 12  2  0
 12 13  1  0
 13 14  1  0
 14 15  1  0
 15 16  1  0
 16 17  1  0
 17 18  1  0
 12 19  1  0
 19 20  2  0
  5 21  1  0
 21 22  2  0
 22 23  1  0
 23 24  1  0
 24 25  2  0
 25 26  1  0
 26 27  2  0
 25 28  1  0
 28 29  2  0
 29 30  1  0
 30 31  2  0
 31 32  1  0
 32 33  2  0
 22  2  1  0
 20  9  1  0
 18 14  1  0
 27 23  1  0
 33 28  1  0
M  END
>  <pIC50>  (689) 
6.93

>  <ChEMBL_ID>  (689) 
CHEMBL3597700

>  <document_journal>  (689) 
Bioorg. Med. Chem.

>  <bao_endpoint>  (689) 
BAO_0000190

>  <potential_duplicate>  (689) 
False

>  <uo_units>  (689) 
UO_0000065

>  <canonical_smiles>  (689) 
Cc1ccc(NC(=O)c2ccc(CN3CCCC3)cc2)cc1n4cc(cn4)c5cccnc5

>  <parent_molecule_chembl_id>  (689) 
CHEMBL3597700

>  <assay_type>  (689) 
B

>  <src_id>  (689) 
1

>  <ligand_efficiency>  (689) 
{u'le': u'0.29', u'bei': u'15.84', u'sei': u'10.99', u'lle': u'2.7'}

>  <standard_flag>  (689) 
True

>  <molecule_chembl_id>  (689) 
CHEMBL3597700

>  <target_organism>  (689) 
Homo sapiens

>  <standard_units>  (689) 
nM

>  <record_id>  (689) 
2491077

>  <document_chembl_id>  (689) 
CHEMBL3596095

>  <bao_format>  (689) 
BAO_0000357

>  <data_validity_description>  (689) 
None

>  <activity_id>  (689) 
15662912

>  <standard_type>  (689) 
IC50

>  <target_chembl_id>  (689) 
CHEMBL1862

>  <data_validity_comment>  (689) 
None

>  <published_value>  (689) 
117.4

>  <document_year>  (689) 
2015

>  <target_pref_name>  (689) 
Tyrosine-protein kinase ABL

>  <assay_chembl_id>  (689) 
CHEMBL3600047

>  <standard_relation>  (689) 
=

>  <assay_description>  (689) 
Inhibition of BCR-ABL1 (unknown origin) assessed as ATP remaining by Kinase-Glo luminescent kinase assay

>  <published_relation>  (689) 
=

>  <standard_value>  (689) 
117.4

>  <qudt_units>  (689) 
http://www.openphacts.org/units/Nanomolar

>  <target_tax_id>  (689) 
9606

>  <bao_label>  (689) 
single protein format

>  <published_units>  (689) 
nM

>  <pchembl_value>  (689) 
6.93

>  <published_type>  (689) 
IC50

>  <activity_comment>  (689) 
None

$$$$

     RDKit          

 36 40  0  0  0  0  0  0  0  0999 V2000
    0.0000    0.0000    0.0000 C   0  0  0  0  0  0  0  0  0  0  0  0
    0.0000    0.0000    0.0000 N   0  0  0  0  0  0  0  0  0  0  0  0
    0.0000    0.0000    0.0000 C   0  0  0  0  0  0  0  0  0  0  0  0
    0.0000    0.0000    0.0000 C   0  0  0  0  0  0  0  0  0  0  0  0
    0.0000    0.0000    0.0000 C   0  0  0  0  0  0  0  0  0  0  0  0
    0.0000    0.0000    0.0000 N   0  0  0  0  0  0  0  0  0  0  0  0
    0.0000    0.0000    0.0000 C   0  0  0  0  0  0  0  0  0  0  0  0
    0.0000    0.0000    0.0000 C   0  0  0  0  0  0  0  0  0  0  0  0
    0.0000    0.0000    0.0000 C   0  0  0  0  0  0  0  0  0  0  0  0
    0.0000    0.0000    0.0000 C   0  0  0  0  0  0  0  0  0  0  0  0
    0.0000    0.0000    0.0000 C   0  0  0  0  0  0  0  0  0  0  0  0
    0.0000    0.0000    0.0000 C   0  0  0  0  0  0  0  0  0  0  0  0
    0.0000    0.0000    0.0000 C   0  0  0  0  0  0  0  0  0  0  0  0
    0.0000    0.0000    0.0000 C   0  0  0  0  0  0  0  0  0  0  0  0
    0.0000    0.0000    0.0000 O   0  0  0  0  0  0  0  0  0  0  0  0
    0.0000    0.0000    0.0000 N   0  0  0  0  0  0  0  0  0  0  0  0
    0.0000    0.0000    0.0000 C   0  0  0  0  0  0  0  0  0  0  0  0
    0.0000    0.0000    0.0000 C   0  0  0  0  0  0  0  0  0  0  0  0
    0.0000    0.0000    0.0000 C   0  0  0  0  0  0  0  0  0  0  0  0
    0.0000    0.0000    0.0000 C   0  0  0  0  0  0  0  0  0  0  0  0
    0.0000    0.0000    0.0000 C   0  0  0  0  0  0  0  0  0  0  0  0
    0.0000    0.0000    0.0000 C   0  0  0  0  0  0  0  0  0  0  0  0
    0.0000    0.0000    0.0000 C   0  0  0  0  0  0  0  0  0  0  0  0
    0.0000    0.0000    0.0000 N   0  0  0  0  0  0  0  0  0  0  0  0
    0.0000    0.0000    0.0000 C   0  0  0  0  0  0  0  0  0  0  0  0
    0.0000    0.0000    0.0000 C   0  0  0  0  0  0  0  0  0  0  0  0
    0.0000    0.0000    0.0000 C   0  0  0  0  0  0  0  0  0  0  0  0
    0.0000    0.0000    0.0000 N   0  0  0  0  0  0  0  0  0  0  0  0
    0.0000    0.0000    0.0000 C   0  0  0  0  0  0  0  0  0  0  0  0
    0.0000    0.0000    0.0000 C   0  0  0  0  0  0  0  0  0  0  0  0
    0.0000    0.0000    0.0000 C   0  0  0  0  0  0  0  0  0  0  0  0
    0.0000    0.0000    0.0000 C   0  0  0  0  0  0  0  0  0  0  0  0
    0.0000    0.0000    0.0000 N   0  0  0  0  0  0  0  0  0  0  0  0
    0.0000    0.0000    0.0000 C   0  0  0  0  0  0  0  0  0  0  0  0
    0.0000    0.0000    0.0000 C   0  0  0  0  0  0  0  0  0  0  0  0
    0.0000    0.0000    0.0000 C   0  0  0  0  0  0  0  0  0  0  0  0
  1  2  1  0
  2  3  1  0
  3  4  1  0
  4  5  1  0
  5  6  1  0
  6  7  1  0
  7  8  1  0
  8  9  2  0
  9 10  1  0
 10 11  2  0
 11 12  1  0
 12 13  2  0
 11 14  1  0
 14 15  2  0
 14 16  1  0
 16 17  1  0
 17 18  2  0
 18 19  1  0
 19 20  2  0
 20 21  1  0
 20 22  1  0
 22 23  2  0
 22 24  1  0
 24 25  1  0
 25 26  2  0
 26 27  1  0
 27 28  2  0
 26 29  1  0
 29 30  2  0
 30 31  1  0
 31 32  2  0
 32 33  1  0
 33 34  2  0
  6 35  1  0
 35 36  1  0
 36  2  1  0
 13  8  1  0
 23 17  1  0
 28 24  1  0
 34 29  1  0
M  END
>  <pIC50>  (690) 
7.58

>  <ChEMBL_ID>  (690) 
CHEMBL3597615

>  <document_journal>  (690) 
Bioorg. Med. Chem.

>  <bao_endpoint>  (690) 
BAO_0000190

>  <potential_duplicate>  (690) 
False

>  <uo_units>  (690) 
UO_0000065

>  <canonical_smiles>  (690) 
CN1CCCN(Cc2ccc(cc2)C(=O)Nc3ccc(C)c(c3)n4cc(cn4)c5cccnc5)CC1

>  <parent_molecule_chembl_id>  (690) 
CHEMBL3597615

>  <assay_type>  (690) 
B

>  <src_id>  (690) 
1

>  <ligand_efficiency>  (690) 
{u'le': u'0.29', u'bei': u'15.76', u'sei': u'11.43', u'lle': u'3.79'}

>  <standard_flag>  (690) 
True

>  <molecule_chembl_id>  (690) 
CHEMBL3597615

>  <target_organism>  (690) 
Homo sapiens

>  <standard_units>  (690) 
nM

>  <record_id>  (690) 
2490968

>  <document_chembl_id>  (690) 
CHEMBL3596095

>  <bao_format>  (690) 
BAO_0000357

>  <data_validity_description>  (690) 
None

>  <activity_id>  (690) 
15662913

>  <standard_type>  (690) 
IC50

>  <target_chembl_id>  (690) 
CHEMBL1862

>  <data_validity_comment>  (690) 
None

>  <published_value>  (690) 
26.58

>  <document_year>  (690) 
2015

>  <target_pref_name>  (690) 
Tyrosine-protein kinase ABL

>  <assay_chembl_id>  (690) 
CHEMBL3600047

>  <standard_relation>  (690) 
=

>  <assay_description>  (690) 
Inhibition of BCR-ABL1 (unknown origin) assessed as ATP remaining by Kinase-Glo luminescent kinase assay

>  <published_relation>  (690) 
=

>  <standard_value>  (690) 
26.58

>  <qudt_units>  (690) 
http://www.openphacts.org/units/Nanomolar

>  <target_tax_id>  (690) 
9606

>  <bao_label>  (690) 
single protein format

>  <published_units>  (690) 
nM

>  <pchembl_value>  (690) 
7.58

>  <published_type>  (690) 
IC50

>  <activity_comment>  (690) 
None

$$$$

     RDKit          

 33 36  0  0  0  0  0  0  0  0999 V2000
    0.0000    0.0000    0.0000 C   0  0  0  0  0  0  0  0  0  0  0  0
    0.0000    0.0000    0.0000 C   0  0  0  0  0  0  0  0  0  0  0  0
    0.0000    0.0000    0.0000 N   0  0  0  0  0  0  0  0  0  0  0  0
    0.0000    0.0000    0.0000 C   0  0  0  0  0  0  0  0  0  0  0  0
    0.0000    0.0000    0.0000 C   0  0  0  0  0  0  0  0  0  0  0  0
    0.0000    0.0000    0.0000 C   0  0  0  0  0  0  0  0  0  0  0  0
    0.0000    0.0000    0.0000 C   0  0  0  0  0  0  0  0  0  0  0  0
    0.0000    0.0000    0.0000 C   0  0  0  0  0  0  0  0  0  0  0  0
    0.0000    0.0000    0.0000 C   0  0  0  0  0  0  0  0  0  0  0  0
    0.0000    0.0000    0.0000 C   0  0  0  0  0  0  0  0  0  0  0  0
    0.0000    0.0000    0.0000 C   0  0  0  0  0  0  0  0  0  0  0  0
    0.0000    0.0000    0.0000 C   0  0  0  0  0  0  0  0  0  0  0  0
    0.0000    0.0000    0.0000 C   0  0  0  0  0  0  0  0  0  0  0  0
    0.0000    0.0000    0.0000 O   0  0  0  0  0  0  0  0  0  0  0  0
    0.0000    0.0000    0.0000 N   0  0  0  0  0  0  0  0  0  0  0  0
    0.0000    0.0000    0.0000 C   0  0  0  0  0  0  0  0  0  0  0  0
    0.0000    0.0000    0.0000 C   0  0  0  0  0  0  0  0  0  0  0  0
    0.0000    0.0000    0.0000 C   0  0  0  0  0  0  0  0  0  0  0  0
    0.0000    0.0000    0.0000 C   0  0  0  0  0  0  0  0  0  0  0  0
    0.0000    0.0000    0.0000 C   0  0  0  0  0  0  0  0  0  0  0  0
    0.0000    0.0000    0.0000 C   0  0  0  0  0  0  0  0  0  0  0  0
    0.0000    0.0000    0.0000 C   0  0  0  0  0  0  0  0  0  0  0  0
    0.0000    0.0000    0.0000 N   0  0  0  0  0  0  0  0  0  0  0  0
    0.0000    0.0000    0.0000 C   0  0  0  0  0  0  0  0  0  0  0  0
    0.0000    0.0000    0.0000 C   0  0  0  0  0  0  0  0  0  0  0  0
    0.0000    0.0000    0.0000 C   0  0  0  0  0  0  0  0  0  0  0  0
    0.0000    0.0000    0.0000 N   0  0  0  0  0  0  0  0  0  0  0  0
    0.0000    0.0000    0.0000 C   0  0  0  0  0  0  0  0  0  0  0  0
    0.0000    0.0000    0.0000 C   0  0  0  0  0  0  0  0  0  0  0  0
    0.0000    0.0000    0.0000 C   0  0  0  0  0  0  0  0  0  0  0  0
    0.0000    0.0000    0.0000 C   0  0  0  0  0  0  0  0  0  0  0  0
    0.0000    0.0000    0.0000 N   0  0  0  0  0  0  0  0  0  0  0  0
    0.0000    0.0000    0.0000 C   0  0  0  0  0  0  0  0  0  0  0  0
  1  2  1  0
  2  3  1  0
  3  4  1  0
  4  5  1  0
  3  6  1  0
  6  7  1  0
  7  8  2  0
  8  9  1  0
  9 10  2  0
 10 11  1  0
 11 12  2  0
 10 13  1  0
 13 14  2  0
 13 15  1  0
 15 16  1  0
 16 17  2  0
 17 18  1  0
 18 19  2  0
 19 20  1  0
 19 21  1  0
 21 22  2  0
 21 23  1  0
 23 24  1  0
 24 25  2  0
 25 26  1  0
 26 27  2  0
 25 28  1  0
 28 29  2  0
 29 30  1  0
 30 31  2  0
 31 32  1  0
 32 33  2  0
 12  7  1  0
 22 16  1  0
 27 23  1  0
 33 28  1  0
M  END
>  <pIC50>  (691) 
6.89

>  <ChEMBL_ID>  (691) 
CHEMBL3597614

>  <document_journal>  (691) 
Bioorg. Med. Chem.

>  <bao_endpoint>  (691) 
BAO_0000190

>  <potential_duplicate>  (691) 
False

>  <uo_units>  (691) 
UO_0000065

>  <canonical_smiles>  (691) 
CCN(CC)Cc1ccc(cc1)C(=O)Nc2ccc(C)c(c2)n3cc(cn3)c4cccnc4

>  <parent_molecule_chembl_id>  (691) 
CHEMBL3597614

>  <assay_type>  (691) 
B

>  <src_id>  (691) 
1

>  <ligand_efficiency>  (691) 
{u'le': u'0.29', u'bei': u'15.67', u'sei': u'10.93', u'lle': u'2.42'}

>  <standard_flag>  (691) 
True

>  <molecule_chembl_id>  (691) 
CHEMBL3597614

>  <target_organism>  (691) 
Homo sapiens

>  <standard_units>  (691) 
nM

>  <record_id>  (691) 
2490967

>  <document_chembl_id>  (691) 
CHEMBL3596095

>  <bao_format>  (691) 
BAO_0000357

>  <data_validity_description>  (691) 
None

>  <activity_id>  (691) 
15662914

>  <standard_type>  (691) 
IC50

>  <target_chembl_id>  (691) 
CHEMBL1862

>  <data_validity_comment>  (691) 
None

>  <published_value>  (691) 
129.1

>  <document_year>  (691) 
2015

>  <target_pref_name>  (691) 
Tyrosine-protein kinase ABL

>  <assay_chembl_id>  (691) 
CHEMBL3600047

>  <standard_relation>  (691) 
=

>  <assay_description>  (691) 
Inhibition of BCR-ABL1 (unknown origin) assessed as ATP remaining by Kinase-Glo luminescent kinase assay

>  <published_relation>  (691) 
=

>  <standard_value>  (691) 
129.1

>  <qudt_units>  (691) 
http://www.openphacts.org/units/Nanomolar

>  <target_tax_id>  (691) 
9606

>  <bao_label>  (691) 
single protein format

>  <published_units>  (691) 
nM

>  <pchembl_value>  (691) 
6.89

>  <published_type>  (691) 
IC50

>  <activity_comment>  (691) 
None

$$$$

     RDKit          

 33 37  0  0  0  0  0  0  0  0999 V2000
    0.0000    0.0000    0.0000 C   0  0  0  0  0  0  0  0  0  0  0  0
    0.0000    0.0000    0.0000 C   0  0  0  0  0  0  0  0  0  0  0  0
    0.0000    0.0000    0.0000 C   0  0  0  0  0  0  0  0  0  0  0  0
    0.0000    0.0000    0.0000 C   0  0  0  0  0  0  0  0  0  0  0  0
    0.0000    0.0000    0.0000 C   0  0  0  0  0  0  0  0  0  0  0  0
    0.0000    0.0000    0.0000 N   0  0  0  0  0  0  0  0  0  0  0  0
    0.0000    0.0000    0.0000 C   0  0  0  0  0  0  0  0  0  0  0  0
    0.0000    0.0000    0.0000 O   0  0  0  0  0  0  0  0  0  0  0  0
    0.0000    0.0000    0.0000 C   0  0  0  0  0  0  0  0  0  0  0  0
    0.0000    0.0000    0.0000 C   0  0  0  0  0  0  0  0  0  0  0  0
    0.0000    0.0000    0.0000 C   0  0  0  0  0  0  0  0  0  0  0  0
    0.0000    0.0000    0.0000 C   0  0  0  0  0  0  0  0  0  0  0  0
    0.0000    0.0000    0.0000 C   0  0  0  0  0  0  0  0  0  0  0  0
    0.0000    0.0000    0.0000 N   0  0  0  0  0  0  0  0  0  0  0  0
    0.0000    0.0000    0.0000 C   0  0  0  0  0  0  0  0  0  0  0  0
    0.0000    0.0000    0.0000 C   0  0  0  0  0  0  0  0  0  0  0  0
    0.0000    0.0000    0.0000 N   0  0  0  0  0  0  0  0  0  0  0  0
    0.0000    0.0000    0.0000 C   0  0  0  0  0  0  0  0  0  0  0  0
    0.0000    0.0000    0.0000 C   0  0  0  0  0  0  0  0  0  0  0  0
    0.0000    0.0000    0.0000 C   0  0  0  0  0  0  0  0  0  0  0  0
    0.0000    0.0000    0.0000 C   0  0  0  0  0  0  0  0  0  0  0  0
    0.0000    0.0000    0.0000 C   0  0  0  0  0  0  0  0  0  0  0  0
    0.0000    0.0000    0.0000 N   0  0  0  0  0  0  0  0  0  0  0  0
    0.0000    0.0000    0.0000 C   0  0  0  0  0  0  0  0  0  0  0  0
    0.0000    0.0000    0.0000 C   0  0  0  0  0  0  0  0  0  0  0  0
    0.0000    0.0000    0.0000 C   0  0  0  0  0  0  0  0  0  0  0  0
    0.0000    0.0000    0.0000 N   0  0  0  0  0  0  0  0  0  0  0  0
    0.0000    0.0000    0.0000 C   0  0  0  0  0  0  0  0  0  0  0  0
    0.0000    0.0000    0.0000 C   0  0  0  0  0  0  0  0  0  0  0  0
    0.0000    0.0000    0.0000 C   0  0  0  0  0  0  0  0  0  0  0  0
    0.0000    0.0000    0.0000 C   0  0  0  0  0  0  0  0  0  0  0  0
    0.0000    0.0000    0.0000 N   0  0  0  0  0  0  0  0  0  0  0  0
    0.0000    0.0000    0.0000 C   0  0  0  0  0  0  0  0  0  0  0  0
  1  2  1  0
  2  3  2  0
  3  4  1  0
  4  5  2  0
  5  6  1  0
  6  7  1  0
  7  8  2  0
  7  9  1  0
  9 10  2  0
 10 11  1  0
 11 12  2  0
 12 13  1  0
 13 14  1  0
 14 15  1  0
 15 16  2  0
 16 17  1  0
 17 18  2  0
 12 19  1  0
 19 20  2  0
  5 21  1  0
 21 22  2  0
 22 23  1  0
 23 24  1  0
 24 25  2  0
 25 26  1  0
 26 27  2  0
 25 28  1  0
 28 29  2  0
 29 30  1  0
 30 31  2  0
 31 32  1  0
 32 33  2  0
 22  2  1  0
 20  9  1  0
 18 14  1  0
 27 23  1  0
 33 28  1  0
M  END
>  <pIC50>  (692) 
6.49

>  <ChEMBL_ID>  (692) 
CHEMBL3597613

>  <document_journal>  (692) 
Bioorg. Med. Chem.

>  <bao_endpoint>  (692) 
BAO_0000190

>  <potential_duplicate>  (692) 
False

>  <uo_units>  (692) 
UO_0000065

>  <canonical_smiles>  (692) 
Cc1ccc(NC(=O)c2ccc(Cn3ccnc3)cc2)cc1n4cc(cn4)c5cccnc5

>  <parent_molecule_chembl_id>  (692) 
CHEMBL3597613

>  <assay_type>  (692) 
B

>  <src_id>  (692) 
1

>  <ligand_efficiency>  (692) 
{u'le': u'0.27', u'bei': u'14.93', u'sei': u'8.36', u'lle': u'3.12'}

>  <standard_flag>  (692) 
True

>  <molecule_chembl_id>  (692) 
CHEMBL3597613

>  <target_organism>  (692) 
Homo sapiens

>  <standard_units>  (692) 
nM

>  <record_id>  (692) 
2490966

>  <document_chembl_id>  (692) 
CHEMBL3596095

>  <bao_format>  (692) 
BAO_0000357

>  <data_validity_description>  (692) 
None

>  <activity_id>  (692) 
15662915

>  <standard_type>  (692) 
IC50

>  <target_chembl_id>  (692) 
CHEMBL1862

>  <data_validity_comment>  (692) 
None

>  <published_value>  (692) 
326

>  <document_year>  (692) 
2015

>  <target_pref_name>  (692) 
Tyrosine-protein kinase ABL

>  <assay_chembl_id>  (692) 
CHEMBL3600047

>  <standard_relation>  (692) 
=

>  <assay_description>  (692) 
Inhibition of BCR-ABL1 (unknown origin) assessed as ATP remaining by Kinase-Glo luminescent kinase assay

>  <published_relation>  (692) 
=

>  <standard_value>  (692) 
326

>  <qudt_units>  (692) 
http://www.openphacts.org/units/Nanomolar

>  <target_tax_id>  (692) 
9606

>  <bao_label>  (692) 
single protein format

>  <published_units>  (692) 
nM

>  <pchembl_value>  (692) 
6.49

>  <published_type>  (692) 
IC50

>  <activity_comment>  (692) 
None

$$$$

     RDKit          

 34 38  0  0  0  0  0  0  0  0999 V2000
    0.0000    0.0000    0.0000 C   0  0  0  0  0  0  0  0  0  0  0  0
    0.0000    0.0000    0.0000 C   0  0  0  0  0  0  0  0  0  0  0  0
    0.0000    0.0000    0.0000 C   0  0  0  0  0  0  0  0  0  0  0  0
    0.0000    0.0000    0.0000 C   0  0  0  0  0  0  0  0  0  0  0  0
    0.0000    0.0000    0.0000 C   0  0  0  0  0  0  0  0  0  0  0  0
    0.0000    0.0000    0.0000 N   0  0  0  0  0  0  0  0  0  0  0  0
    0.0000    0.0000    0.0000 C   0  0  0  0  0  0  0  0  0  0  0  0
    0.0000    0.0000    0.0000 O   0  0  0  0  0  0  0  0  0  0  0  0
    0.0000    0.0000    0.0000 C   0  0  0  0  0  0  0  0  0  0  0  0
    0.0000    0.0000    0.0000 C   0  0  0  0  0  0  0  0  0  0  0  0
    0.0000    0.0000    0.0000 C   0  0  0  0  0  0  0  0  0  0  0  0
    0.0000    0.0000    0.0000 C   0  0  0  0  0  0  0  0  0  0  0  0
    0.0000    0.0000    0.0000 C   0  0  0  0  0  0  0  0  0  0  0  0
    0.0000    0.0000    0.0000 N   0  0  0  0  0  0  0  0  0  0  0  0
    0.0000    0.0000    0.0000 C   0  0  0  0  0  0  0  0  0  0  0  0
    0.0000    0.0000    0.0000 C   0  0  0  0  0  0  0  0  0  0  0  0
    0.0000    0.0000    0.0000 O   0  0  0  0  0  0  0  0  0  0  0  0
    0.0000    0.0000    0.0000 C   0  0  0  0  0  0  0  0  0  0  0  0
    0.0000    0.0000    0.0000 C   0  0  0  0  0  0  0  0  0  0  0  0
    0.0000    0.0000    0.0000 C   0  0  0  0  0  0  0  0  0  0  0  0
    0.0000    0.0000    0.0000 C   0  0  0  0  0  0  0  0  0  0  0  0
    0.0000    0.0000    0.0000 C   0  0  0  0  0  0  0  0  0  0  0  0
    0.0000    0.0000    0.0000 C   0  0  0  0  0  0  0  0  0  0  0  0
    0.0000    0.0000    0.0000 N   0  0  0  0  0  0  0  0  0  0  0  0
    0.0000    0.0000    0.0000 C   0  0  0  0  0  0  0  0  0  0  0  0
    0.0000    0.0000    0.0000 C   0  0  0  0  0  0  0  0  0  0  0  0
    0.0000    0.0000    0.0000 C   0  0  0  0  0  0  0  0  0  0  0  0
    0.0000    0.0000    0.0000 N   0  0  0  0  0  0  0  0  0  0  0  0
    0.0000    0.0000    0.0000 C   0  0  0  0  0  0  0  0  0  0  0  0
    0.0000    0.0000    0.0000 C   0  0  0  0  0  0  0  0  0  0  0  0
    0.0000    0.0000    0.0000 C   0  0  0  0  0  0  0  0  0  0  0  0
    0.0000    0.0000    0.0000 C   0  0  0  0  0  0  0  0  0  0  0  0
    0.0000    0.0000    0.0000 N   0  0  0  0  0  0  0  0  0  0  0  0
    0.0000    0.0000    0.0000 C   0  0  0  0  0  0  0  0  0  0  0  0
  1  2  1  0
  2  3  2  0
  3  4  1  0
  4  5  2  0
  5  6  1  0
  6  7  1  0
  7  8  2  0
  7  9  1  0
  9 10  2  0
 10 11  1  0
 11 12  2  0
 12 13  1  0
 13 14  1  0
 14 15  1  0
 15 16  1  0
 16 17  1  0
 17 18  1  0
 18 19  1  0
 12 20  1  0
 20 21  2  0
  5 22  1  0
 22 23  2  0
 23 24  1  0
 24 25  1  0
 25 26  2  0
 26 27  1  0
 27 28  2  0
 26 29  1  0
 29 30  2  0
 30 31  1  0
 31 32  2  0
 32 33  1  0
 33 34  2  0
 23  2  1  0
 21  9  1  0
 19 14  1  0
 28 24  1  0
 34 29  1  0
M  END
>  <pIC50>  (693) 
6.75

>  <ChEMBL_ID>  (693) 
CHEMBL3597612

>  <document_journal>  (693) 
Bioorg. Med. Chem.

>  <bao_endpoint>  (693) 
BAO_0000190

>  <potential_duplicate>  (693) 
False

>  <uo_units>  (693) 
UO_0000065

>  <canonical_smiles>  (693) 
Cc1ccc(NC(=O)c2ccc(CN3CCOCC3)cc2)cc1n4cc(cn4)c5cccnc5

>  <parent_molecule_chembl_id>  (693) 
CHEMBL3597612

>  <assay_type>  (693) 
B

>  <src_id>  (693) 
1

>  <ligand_efficiency>  (693) 
{u'le': u'0.27', u'bei': u'14.88', u'sei': u'9.34', u'lle': u'3.29'}

>  <standard_flag>  (693) 
True

>  <molecule_chembl_id>  (693) 
CHEMBL3597612

>  <target_organism>  (693) 
Homo sapiens

>  <standard_units>  (693) 
nM

>  <record_id>  (693) 
2490965

>  <document_chembl_id>  (693) 
CHEMBL3596095

>  <bao_format>  (693) 
BAO_0000357

>  <data_validity_description>  (693) 
None

>  <activity_id>  (693) 
15662916

>  <standard_type>  (693) 
IC50

>  <target_chembl_id>  (693) 
CHEMBL1862

>  <data_validity_comment>  (693) 
None

>  <published_value>  (693) 
178

>  <document_year>  (693) 
2015

>  <target_pref_name>  (693) 
Tyrosine-protein kinase ABL

>  <assay_chembl_id>  (693) 
CHEMBL3600047

>  <standard_relation>  (693) 
=

>  <assay_description>  (693) 
Inhibition of BCR-ABL1 (unknown origin) assessed as ATP remaining by Kinase-Glo luminescent kinase assay

>  <published_relation>  (693) 
=

>  <standard_value>  (693) 
178

>  <qudt_units>  (693) 
http://www.openphacts.org/units/Nanomolar

>  <target_tax_id>  (693) 
9606

>  <bao_label>  (693) 
single protein format

>  <published_units>  (693) 
nM

>  <pchembl_value>  (693) 
6.75

>  <published_type>  (693) 
IC50

>  <activity_comment>  (693) 
None

$$$$

     RDKit          

 35 39  0  0  0  0  0  0  0  0999 V2000
    0.0000    0.0000    0.0000 C   0  0  0  0  0  0  0  0  0  0  0  0
    0.0000    0.0000    0.0000 N   0  0  0  0  0  0  0  0  0  0  0  0
    0.0000    0.0000    0.0000 C   0  0  0  0  0  0  0  0  0  0  0  0
    0.0000    0.0000    0.0000 C   0  0  0  0  0  0  0  0  0  0  0  0
    0.0000    0.0000    0.0000 N   0  0  0  0  0  0  0  0  0  0  0  0
    0.0000    0.0000    0.0000 C   0  0  0  0  0  0  0  0  0  0  0  0
    0.0000    0.0000    0.0000 C   0  0  0  0  0  0  0  0  0  0  0  0
    0.0000    0.0000    0.0000 C   0  0  0  0  0  0  0  0  0  0  0  0
    0.0000    0.0000    0.0000 C   0  0  0  0  0  0  0  0  0  0  0  0
    0.0000    0.0000    0.0000 C   0  0  0  0  0  0  0  0  0  0  0  0
    0.0000    0.0000    0.0000 C   0  0  0  0  0  0  0  0  0  0  0  0
    0.0000    0.0000    0.0000 C   0  0  0  0  0  0  0  0  0  0  0  0
    0.0000    0.0000    0.0000 C   0  0  0  0  0  0  0  0  0  0  0  0
    0.0000    0.0000    0.0000 O   0  0  0  0  0  0  0  0  0  0  0  0
    0.0000    0.0000    0.0000 N   0  0  0  0  0  0  0  0  0  0  0  0
    0.0000    0.0000    0.0000 C   0  0  0  0  0  0  0  0  0  0  0  0
    0.0000    0.0000    0.0000 C   0  0  0  0  0  0  0  0  0  0  0  0
    0.0000    0.0000    0.0000 C   0  0  0  0  0  0  0  0  0  0  0  0
    0.0000    0.0000    0.0000 C   0  0  0  0  0  0  0  0  0  0  0  0
    0.0000    0.0000    0.0000 C   0  0  0  0  0  0  0  0  0  0  0  0
    0.0000    0.0000    0.0000 C   0  0  0  0  0  0  0  0  0  0  0  0
    0.0000    0.0000    0.0000 C   0  0  0  0  0  0  0  0  0  0  0  0
    0.0000    0.0000    0.0000 N   0  0  0  0  0  0  0  0  0  0  0  0
    0.0000    0.0000    0.0000 C   0  0  0  0  0  0  0  0  0  0  0  0
    0.0000    0.0000    0.0000 C   0  0  0  0  0  0  0  0  0  0  0  0
    0.0000    0.0000    0.0000 C   0  0  0  0  0  0  0  0  0  0  0  0
    0.0000    0.0000    0.0000 N   0  0  0  0  0  0  0  0  0  0  0  0
    0.0000    0.0000    0.0000 C   0  0  0  0  0  0  0  0  0  0  0  0
    0.0000    0.0000    0.0000 C   0  0  0  0  0  0  0  0  0  0  0  0
    0.0000    0.0000    0.0000 C   0  0  0  0  0  0  0  0  0  0  0  0
    0.0000    0.0000    0.0000 C   0  0  0  0  0  0  0  0  0  0  0  0
    0.0000    0.0000    0.0000 N   0  0  0  0  0  0  0  0  0  0  0  0
    0.0000    0.0000    0.0000 C   0  0  0  0  0  0  0  0  0  0  0  0
    0.0000    0.0000    0.0000 C   0  0  0  0  0  0  0  0  0  0  0  0
    0.0000    0.0000    0.0000 C   0  0  0  0  0  0  0  0  0  0  0  0
  1  2  1  0
  2  3  1  0
  3  4  1  0
  4  5  1  0
  5  6  1  0
  6  7  1  0
  7  8  2  0
  8  9  1  0
  9 10  2  0
 10 11  1  0
 11 12  2  0
 10 13  1  0
 13 14  2  0
 13 15  1  0
 15 16  1  0
 16 17  2  0
 17 18  1  0
 18 19  2  0
 19 20  1  0
 19 21  1  0
 21 22  2  0
 21 23  1  0
 23 24  1  0
 24 25  2  0
 25 26  1  0
 26 27  2  0
 25 28  1  0
 28 29  2  0
 29 30  1  0
 30 31  2  0
 31 32  1  0
 32 33  2  0
  5 34  1  0
 34 35  1  0
 35  2  1  0
 12  7  1  0
 22 16  1  0
 27 23  1  0
 33 28  1  0
M  END
>  <pIC50>  (694) 
7.3

>  <ChEMBL_ID>  (694) 
CHEMBL3597611

>  <document_journal>  (694) 
Bioorg. Med. Chem.

>  <bao_endpoint>  (694) 
BAO_0000190

>  <potential_duplicate>  (694) 
False

>  <uo_units>  (694) 
UO_0000065

>  <canonical_smiles>  (694) 
CN1CCN(Cc2ccc(cc2)C(=O)Nc3ccc(C)c(c3)n4cc(cn4)c5cccnc5)CC1

>  <parent_molecule_chembl_id>  (694) 
CHEMBL3597611

>  <assay_type>  (694) 
B

>  <src_id>  (694) 
1

>  <ligand_efficiency>  (694) 
{u'le': u'0.28', u'bei': u'15.64', u'sei': u'11.01', u'lle': u'3.57'}

>  <standard_flag>  (694) 
True

>  <molecule_chembl_id>  (694) 
CHEMBL3597611

>  <target_organism>  (694) 
Homo sapiens

>  <standard_units>  (694) 
nM

>  <record_id>  (694) 
2490964

>  <document_chembl_id>  (694) 
CHEMBL3596095

>  <bao_format>  (694) 
BAO_0000357

>  <data_validity_description>  (694) 
None

>  <activity_id>  (694) 
15662917

>  <standard_type>  (694) 
IC50

>  <target_chembl_id>  (694) 
CHEMBL1862

>  <data_validity_comment>  (694) 
None

>  <published_value>  (694) 
50.6

>  <document_year>  (694) 
2015

>  <target_pref_name>  (694) 
Tyrosine-protein kinase ABL

>  <assay_chembl_id>  (694) 
CHEMBL3600047

>  <standard_relation>  (694) 
=

>  <assay_description>  (694) 
Inhibition of BCR-ABL1 (unknown origin) assessed as ATP remaining by Kinase-Glo luminescent kinase assay

>  <published_relation>  (694) 
=

>  <standard_value>  (694) 
50.6

>  <qudt_units>  (694) 
http://www.openphacts.org/units/Nanomolar

>  <target_tax_id>  (694) 
9606

>  <bao_label>  (694) 
single protein format

>  <published_units>  (694) 
nM

>  <pchembl_value>  (694) 
7.3

>  <published_type>  (694) 
IC50

>  <activity_comment>  (694) 
None

$$$$

     RDKit          

 29 32  0  0  0  0  0  0  0  0999 V2000
    0.0000    0.0000    0.0000 C   0  0  0  0  0  0  0  0  0  0  0  0
    0.0000    0.0000    0.0000 O   0  0  0  0  0  0  0  0  0  0  0  0
    0.0000    0.0000    0.0000 C   0  0  0  0  0  0  0  0  0  0  0  0
    0.0000    0.0000    0.0000 C   0  0  0  0  0  0  0  0  0  0  0  0
    0.0000    0.0000    0.0000 C   0  0  0  0  0  0  0  0  0  0  0  0
    0.0000    0.0000    0.0000 C   0  0  0  0  0  0  0  0  0  0  0  0
    0.0000    0.0000    0.0000 C   0  0  0  0  0  0  0  0  0  0  0  0
    0.0000    0.0000    0.0000 C   0  0  0  0  0  0  0  0  0  0  0  0
    0.0000    0.0000    0.0000 C   0  0  0  0  0  0  0  0  0  0  0  0
    0.0000    0.0000    0.0000 O   0  0  0  0  0  0  0  0  0  0  0  0
    0.0000    0.0000    0.0000 N   0  0  0  0  0  0  0  0  0  0  0  0
    0.0000    0.0000    0.0000 C   0  0  0  0  0  0  0  0  0  0  0  0
    0.0000    0.0000    0.0000 C   0  0  0  0  0  0  0  0  0  0  0  0
    0.0000    0.0000    0.0000 C   0  0  0  0  0  0  0  0  0  0  0  0
    0.0000    0.0000    0.0000 C   0  0  0  0  0  0  0  0  0  0  0  0
    0.0000    0.0000    0.0000 C   0  0  0  0  0  0  0  0  0  0  0  0
    0.0000    0.0000    0.0000 C   0  0  0  0  0  0  0  0  0  0  0  0
    0.0000    0.0000    0.0000 C   0  0  0  0  0  0  0  0  0  0  0  0
    0.0000    0.0000    0.0000 N   0  0  0  0  0  0  0  0  0  0  0  0
    0.0000    0.0000    0.0000 C   0  0  0  0  0  0  0  0  0  0  0  0
    0.0000    0.0000    0.0000 C   0  0  0  0  0  0  0  0  0  0  0  0
    0.0000    0.0000    0.0000 C   0  0  0  0  0  0  0  0  0  0  0  0
    0.0000    0.0000    0.0000 N   0  0  0  0  0  0  0  0  0  0  0  0
    0.0000    0.0000    0.0000 C   0  0  0  0  0  0  0  0  0  0  0  0
    0.0000    0.0000    0.0000 C   0  0  0  0  0  0  0  0  0  0  0  0
    0.0000    0.0000    0.0000 C   0  0  0  0  0  0  0  0  0  0  0  0
    0.0000    0.0000    0.0000 C   0  0  0  0  0  0  0  0  0  0  0  0
    0.0000    0.0000    0.0000 N   0  0  0  0  0  0  0  0  0  0  0  0
    0.0000    0.0000    0.0000 C   0  0  0  0  0  0  0  0  0  0  0  0
  1  2  1  0
  2  3  1  0
  3  4  2  0
  4  5  1  0
  5  6  2  0
  6  7  1  0
  7  8  2  0
  6  9  1  0
  9 10  2  0
  9 11  1  0
 11 12  1  0
 12 13  2  0
 13 14  1  0
 14 15  2  0
 15 16  1  0
 15 17  1  0
 17 18  2  0
 17 19  1  0
 19 20  1  0
 20 21  2  0
 21 22  1  0
 22 23  2  0
 21 24  1  0
 24 25  2  0
 25 26  1  0
 26 27  2  0
 27 28  1  0
 28 29  2  0
  8  3  1  0
 18 12  1  0
 23 19  1  0
 29 24  1  0
M  END
>  <pIC50>  (695) 
7.34

>  <ChEMBL_ID>  (695) 
CHEMBL3597610

>  <document_journal>  (695) 
Bioorg. Med. Chem.

>  <bao_endpoint>  (695) 
BAO_0000190

>  <potential_duplicate>  (695) 
False

>  <uo_units>  (695) 
UO_0000065

>  <canonical_smiles>  (695) 
COc1ccc(cc1)C(=O)Nc2ccc(C)c(c2)n3cc(cn3)c4cccnc4

>  <parent_molecule_chembl_id>  (695) 
CHEMBL3597610

>  <assay_type>  (695) 
B

>  <src_id>  (695) 
1

>  <ligand_efficiency>  (695) 
{u'le': u'0.35', u'bei': u'19.08', u'sei': u'10.62', u'lle': u'3.66'}

>  <standard_flag>  (695) 
True

>  <molecule_chembl_id>  (695) 
CHEMBL3597610

>  <target_organism>  (695) 
Homo sapiens

>  <standard_units>  (695) 
nM

>  <record_id>  (695) 
2490963

>  <document_chembl_id>  (695) 
CHEMBL3596095

>  <bao_format>  (695) 
BAO_0000357

>  <data_validity_description>  (695) 
None

>  <activity_id>  (695) 
15662918

>  <standard_type>  (695) 
IC50

>  <target_chembl_id>  (695) 
CHEMBL1862

>  <data_validity_comment>  (695) 
None

>  <published_value>  (695) 
46.2

>  <document_year>  (695) 
2015

>  <target_pref_name>  (695) 
Tyrosine-protein kinase ABL

>  <assay_chembl_id>  (695) 
CHEMBL3600047

>  <standard_relation>  (695) 
=

>  <assay_description>  (695) 
Inhibition of BCR-ABL1 (unknown origin) assessed as ATP remaining by Kinase-Glo luminescent kinase assay

>  <published_relation>  (695) 
=

>  <standard_value>  (695) 
46.2

>  <qudt_units>  (695) 
http://www.openphacts.org/units/Nanomolar

>  <target_tax_id>  (695) 
9606

>  <bao_label>  (695) 
single protein format

>  <published_units>  (695) 
nM

>  <pchembl_value>  (695) 
7.34

>  <published_type>  (695) 
IC50

>  <activity_comment>  (695) 
None

$$$$

     RDKit          

 31 34  0  0  0  0  0  0  0  0999 V2000
    0.0000    0.0000    0.0000 C   0  0  0  0  0  0  0  0  0  0  0  0
    0.0000    0.0000    0.0000 C   0  0  0  0  0  0  0  0  0  0  0  0
    0.0000    0.0000    0.0000 C   0  0  0  0  0  0  0  0  0  0  0  0
    0.0000    0.0000    0.0000 C   0  0  0  0  0  0  0  0  0  0  0  0
    0.0000    0.0000    0.0000 C   0  0  0  0  0  0  0  0  0  0  0  0
    0.0000    0.0000    0.0000 N   0  0  0  0  0  0  0  0  0  0  0  0
    0.0000    0.0000    0.0000 C   0  0  0  0  0  0  0  0  0  0  0  0
    0.0000    0.0000    0.0000 O   0  0  0  0  0  0  0  0  0  0  0  0
    0.0000    0.0000    0.0000 C   0  0  0  0  0  0  0  0  0  0  0  0
    0.0000    0.0000    0.0000 C   0  0  0  0  0  0  0  0  0  0  0  0
    0.0000    0.0000    0.0000 C   0  0  0  0  0  0  0  0  0  0  0  0
    0.0000    0.0000    0.0000 C   0  0  0  0  0  0  0  0  0  0  0  0
    0.0000    0.0000    0.0000 C   0  0  0  0  0  0  0  0  0  0  0  0
    0.0000    0.0000    0.0000 C   0  0  0  0  0  0  0  0  0  0  0  0
    0.0000    0.0000    0.0000 C   0  0  0  0  0  0  0  0  0  0  0  0
    0.0000    0.0000    0.0000 F   0  0  0  0  0  0  0  0  0  0  0  0
    0.0000    0.0000    0.0000 F   0  0  0  0  0  0  0  0  0  0  0  0
    0.0000    0.0000    0.0000 F   0  0  0  0  0  0  0  0  0  0  0  0
    0.0000    0.0000    0.0000 C   0  0  0  0  0  0  0  0  0  0  0  0
    0.0000    0.0000    0.0000 C   0  0  0  0  0  0  0  0  0  0  0  0
    0.0000    0.0000    0.0000 N   0  0  0  0  0  0  0  0  0  0  0  0
    0.0000    0.0000    0.0000 C   0  0  0  0  0  0  0  0  0  0  0  0
    0.0000    0.0000    0.0000 C   0  0  0  0  0  0  0  0  0  0  0  0
    0.0000    0.0000    0.0000 C   0  0  0  0  0  0  0  0  0  0  0  0
    0.0000    0.0000    0.0000 N   0  0  0  0  0  0  0  0  0  0  0  0
    0.0000    0.0000    0.0000 C   0  0  0  0  0  0  0  0  0  0  0  0
    0.0000    0.0000    0.0000 C   0  0  0  0  0  0  0  0  0  0  0  0
    0.0000    0.0000    0.0000 C   0  0  0  0  0  0  0  0  0  0  0  0
    0.0000    0.0000    0.0000 C   0  0  0  0  0  0  0  0  0  0  0  0
    0.0000    0.0000    0.0000 N   0  0  0  0  0  0  0  0  0  0  0  0
    0.0000    0.0000    0.0000 C   0  0  0  0  0  0  0  0  0  0  0  0
  1  2  1  0
  2  3  2  0
  3  4  1  0
  4  5  2  0
  5  6  1  0
  6  7  1  0
  7  8  2  0
  7  9  1  0
  9 10  2  0
 10 11  1  0
 11 12  2  0
 12 13  1  0
 13 14  2  0
 12 15  1  0
 15 16  1  0
 15 17  1  0
 15 18  1  0
  5 19  1  0
 19 20  2  0
 20 21  1  0
 21 22  1  0
 22 23  2  0
 23 24  1  0
 24 25  2  0
 23 26  1  0
 26 27  2  0
 27 28  1  0
 28 29  2  0
 29 30  1  0
 30 31  2  0
 20  2  1  0
 14  9  1  0
 25 21  1  0
 31 26  1  0
M  END
>  <pIC50>  (696) 
7.36

>  <ChEMBL_ID>  (696) 
CHEMBL3597609

>  <document_journal>  (696) 
Bioorg. Med. Chem.

>  <bao_endpoint>  (696) 
BAO_0000190

>  <potential_duplicate>  (696) 
False

>  <uo_units>  (696) 
UO_0000065

>  <canonical_smiles>  (696) 
Cc1ccc(NC(=O)c2ccc(cc2)C(F)(F)F)cc1n3cc(cn3)c4cccnc4

>  <parent_molecule_chembl_id>  (696) 
CHEMBL3597609

>  <assay_type>  (696) 
B

>  <src_id>  (696) 
1

>  <ligand_efficiency>  (696) 
{u'le': u'0.32', u'bei': u'17.43', u'sei': u'12.31', u'lle': u'2.72'}

>  <standard_flag>  (696) 
True

>  <molecule_chembl_id>  (696) 
CHEMBL3597609

>  <target_organism>  (696) 
Homo sapiens

>  <standard_units>  (696) 
nM

>  <record_id>  (696) 
2490962

>  <document_chembl_id>  (696) 
CHEMBL3596095

>  <bao_format>  (696) 
BAO_0000357

>  <data_validity_description>  (696) 
None

>  <activity_id>  (696) 
15662919

>  <standard_type>  (696) 
IC50

>  <target_chembl_id>  (696) 
CHEMBL1862

>  <data_validity_comment>  (696) 
None

>  <published_value>  (696) 
43.27

>  <document_year>  (696) 
2015

>  <target_pref_name>  (696) 
Tyrosine-protein kinase ABL

>  <assay_chembl_id>  (696) 
CHEMBL3600047

>  <standard_relation>  (696) 
=

>  <assay_description>  (696) 
Inhibition of BCR-ABL1 (unknown origin) assessed as ATP remaining by Kinase-Glo luminescent kinase assay

>  <published_relation>  (696) 
=

>  <standard_value>  (696) 
43.27

>  <qudt_units>  (696) 
http://www.openphacts.org/units/Nanomolar

>  <target_tax_id>  (696) 
9606

>  <bao_label>  (696) 
single protein format

>  <published_units>  (696) 
nM

>  <pchembl_value>  (696) 
7.36

>  <published_type>  (696) 
IC50

>  <activity_comment>  (696) 
None

$$$$

     RDKit          

 29 32  0  0  0  0  0  0  0  0999 V2000
    0.0000    0.0000    0.0000 C   0  0  0  0  0  0  0  0  0  0  0  0
    0.0000    0.0000    0.0000 C   0  0  0  0  0  0  0  0  0  0  0  0
    0.0000    0.0000    0.0000 C   0  0  0  0  0  0  0  0  0  0  0  0
    0.0000    0.0000    0.0000 C   0  0  0  0  0  0  0  0  0  0  0  0
    0.0000    0.0000    0.0000 C   0  0  0  0  0  0  0  0  0  0  0  0
    0.0000    0.0000    0.0000 C   0  0  0  0  0  0  0  0  0  0  0  0
    0.0000    0.0000    0.0000 C   0  0  0  0  0  0  0  0  0  0  0  0
    0.0000    0.0000    0.0000 C   0  0  0  0  0  0  0  0  0  0  0  0
    0.0000    0.0000    0.0000 C   0  0  0  0  0  0  0  0  0  0  0  0
    0.0000    0.0000    0.0000 O   0  0  0  0  0  0  0  0  0  0  0  0
    0.0000    0.0000    0.0000 N   0  0  0  0  0  0  0  0  0  0  0  0
    0.0000    0.0000    0.0000 C   0  0  0  0  0  0  0  0  0  0  0  0
    0.0000    0.0000    0.0000 C   0  0  0  0  0  0  0  0  0  0  0  0
    0.0000    0.0000    0.0000 C   0  0  0  0  0  0  0  0  0  0  0  0
    0.0000    0.0000    0.0000 C   0  0  0  0  0  0  0  0  0  0  0  0
    0.0000    0.0000    0.0000 C   0  0  0  0  0  0  0  0  0  0  0  0
    0.0000    0.0000    0.0000 C   0  0  0  0  0  0  0  0  0  0  0  0
    0.0000    0.0000    0.0000 C   0  0  0  0  0  0  0  0  0  0  0  0
    0.0000    0.0000    0.0000 N   0  0  0  0  0  0  0  0  0  0  0  0
    0.0000    0.0000    0.0000 C   0  0  0  0  0  0  0  0  0  0  0  0
    0.0000    0.0000    0.0000 C   0  0  0  0  0  0  0  0  0  0  0  0
    0.0000    0.0000    0.0000 C   0  0  0  0  0  0  0  0  0  0  0  0
    0.0000    0.0000    0.0000 N   0  0  0  0  0  0  0  0  0  0  0  0
    0.0000    0.0000    0.0000 C   0  0  0  0  0  0  0  0  0  0  0  0
    0.0000    0.0000    0.0000 C   0  0  0  0  0  0  0  0  0  0  0  0
    0.0000    0.0000    0.0000 C   0  0  0  0  0  0  0  0  0  0  0  0
    0.0000    0.0000    0.0000 C   0  0  0  0  0  0  0  0  0  0  0  0
    0.0000    0.0000    0.0000 N   0  0  0  0  0  0  0  0  0  0  0  0
    0.0000    0.0000    0.0000 C   0  0  0  0  0  0  0  0  0  0  0  0
  1  2  1  0
  2  3  1  0
  3  4  2  0
  4  5  1  0
  5  6  2  0
  6  7  1  0
  7  8  2  0
  6  9  1  0
  9 10  2  0
  9 11  1  0
 11 12  1  0
 12 13  2  0
 13 14  1  0
 14 15  2  0
 15 16  1  0
 15 17  1  0
 17 18  2  0
 17 19  1  0
 19 20  1  0
 20 21  2  0
 21 22  1  0
 22 23  2  0
 21 24  1  0
 24 25  2  0
 25 26  1  0
 26 27  2  0
 27 28  1  0
 28 29  2  0
  8  3  1  0
 18 12  1  0
 23 19  1  0
 29 24  1  0
M  END
>  <pIC50>  (697) 
7.39

>  <ChEMBL_ID>  (697) 
CHEMBL3597608

>  <document_journal>  (697) 
Bioorg. Med. Chem.

>  <bao_endpoint>  (697) 
BAO_0000190

>  <potential_duplicate>  (697) 
False

>  <uo_units>  (697) 
UO_0000065

>  <canonical_smiles>  (697) 
CCc1ccc(cc1)C(=O)Nc2ccc(C)c(c2)n3cc(cn3)c4cccnc4

>  <parent_molecule_chembl_id>  (697) 
CHEMBL3597608

>  <assay_type>  (697) 
B

>  <src_id>  (697) 
1

>  <ligand_efficiency>  (697) 
{u'le': u'0.35', u'bei': u'19.31', u'sei': u'12.35', u'lle': u'2.75'}

>  <standard_flag>  (697) 
True

>  <molecule_chembl_id>  (697) 
CHEMBL3597608

>  <target_organism>  (697) 
Homo sapiens

>  <standard_units>  (697) 
nM

>  <record_id>  (697) 
2490961

>  <document_chembl_id>  (697) 
CHEMBL3596095

>  <bao_format>  (697) 
BAO_0000357

>  <data_validity_description>  (697) 
None

>  <activity_id>  (697) 
15662920

>  <standard_type>  (697) 
IC50

>  <target_chembl_id>  (697) 
CHEMBL1862

>  <data_validity_comment>  (697) 
None

>  <published_value>  (697) 
41.02

>  <document_year>  (697) 
2015

>  <target_pref_name>  (697) 
Tyrosine-protein kinase ABL

>  <assay_chembl_id>  (697) 
CHEMBL3600047

>  <standard_relation>  (697) 
=

>  <assay_description>  (697) 
Inhibition of BCR-ABL1 (unknown origin) assessed as ATP remaining by Kinase-Glo luminescent kinase assay

>  <published_relation>  (697) 
=

>  <standard_value>  (697) 
41.02

>  <qudt_units>  (697) 
http://www.openphacts.org/units/Nanomolar

>  <target_tax_id>  (697) 
9606

>  <bao_label>  (697) 
single protein format

>  <published_units>  (697) 
nM

>  <pchembl_value>  (697) 
7.39

>  <published_type>  (697) 
IC50

>  <activity_comment>  (697) 
None

$$$$

     RDKit          

 28 31  0  0  0  0  0  0  0  0999 V2000
    0.0000    0.0000    0.0000 C   0  0  0  0  0  0  0  0  0  0  0  0
    0.0000    0.0000    0.0000 C   0  0  0  0  0  0  0  0  0  0  0  0
    0.0000    0.0000    0.0000 C   0  0  0  0  0  0  0  0  0  0  0  0
    0.0000    0.0000    0.0000 C   0  0  0  0  0  0  0  0  0  0  0  0
    0.0000    0.0000    0.0000 C   0  0  0  0  0  0  0  0  0  0  0  0
    0.0000    0.0000    0.0000 N   0  0  0  0  0  0  0  0  0  0  0  0
    0.0000    0.0000    0.0000 C   0  0  0  0  0  0  0  0  0  0  0  0
    0.0000    0.0000    0.0000 O   0  0  0  0  0  0  0  0  0  0  0  0
    0.0000    0.0000    0.0000 C   0  0  0  0  0  0  0  0  0  0  0  0
    0.0000    0.0000    0.0000 C   0  0  0  0  0  0  0  0  0  0  0  0
    0.0000    0.0000    0.0000 C   0  0  0  0  0  0  0  0  0  0  0  0
    0.0000    0.0000    0.0000 C   0  0  0  0  0  0  0  0  0  0  0  0
    0.0000    0.0000    0.0000 F   0  0  0  0  0  0  0  0  0  0  0  0
    0.0000    0.0000    0.0000 C   0  0  0  0  0  0  0  0  0  0  0  0
    0.0000    0.0000    0.0000 C   0  0  0  0  0  0  0  0  0  0  0  0
    0.0000    0.0000    0.0000 C   0  0  0  0  0  0  0  0  0  0  0  0
    0.0000    0.0000    0.0000 C   0  0  0  0  0  0  0  0  0  0  0  0
    0.0000    0.0000    0.0000 N   0  0  0  0  0  0  0  0  0  0  0  0
    0.0000    0.0000    0.0000 C   0  0  0  0  0  0  0  0  0  0  0  0
    0.0000    0.0000    0.0000 C   0  0  0  0  0  0  0  0  0  0  0  0
    0.0000    0.0000    0.0000 C   0  0  0  0  0  0  0  0  0  0  0  0
    0.0000    0.0000    0.0000 N   0  0  0  0  0  0  0  0  0  0  0  0
    0.0000    0.0000    0.0000 C   0  0  0  0  0  0  0  0  0  0  0  0
    0.0000    0.0000    0.0000 C   0  0  0  0  0  0  0  0  0  0  0  0
    0.0000    0.0000    0.0000 C   0  0  0  0  0  0  0  0  0  0  0  0
    0.0000    0.0000    0.0000 C   0  0  0  0  0  0  0  0  0  0  0  0
    0.0000    0.0000    0.0000 N   0  0  0  0  0  0  0  0  0  0  0  0
    0.0000    0.0000    0.0000 C   0  0  0  0  0  0  0  0  0  0  0  0
  1  2  1  0
  2  3  2  0
  3  4  1  0
  4  5  2  0
  5  6  1  0
  6  7  1  0
  7  8  2  0
  7  9  1  0
  9 10  2  0
 10 11  1  0
 11 12  2  0
 12 13  1  0
 12 14  1  0
 14 15  2  0
  5 16  1  0
 16 17  2  0
 17 18  1  0
 18 19  1  0
 19 20  2  0
 20 21  1  0
 21 22  2  0
 20 23  1  0
 23 24  2  0
 24 25  1  0
 25 26  2  0
 26 27  1  0
 27 28  2  0
 17  2  1  0
 15  9  1  0
 22 18  1  0
 28 23  1  0
M  END
>  <pIC50>  (698) 
6.67

>  <ChEMBL_ID>  (698) 
CHEMBL3597607

>  <document_journal>  (698) 
Bioorg. Med. Chem.

>  <bao_endpoint>  (698) 
BAO_0000190

>  <potential_duplicate>  (698) 
False

>  <uo_units>  (698) 
UO_0000065

>  <canonical_smiles>  (698) 
Cc1ccc(NC(=O)c2ccc(F)cc2)cc1n3cc(cn3)c4cccnc4

>  <parent_molecule_chembl_id>  (698) 
CHEMBL3597607

>  <assay_type>  (698) 
B

>  <src_id>  (698) 
1

>  <ligand_efficiency>  (698) 
{u'le': u'0.33', u'bei': u'17.91', u'sei': u'11.15', u'lle': u'2.77'}

>  <standard_flag>  (698) 
True

>  <molecule_chembl_id>  (698) 
CHEMBL3597607

>  <target_organism>  (698) 
Homo sapiens

>  <standard_units>  (698) 
nM

>  <record_id>  (698) 
2490960

>  <document_chembl_id>  (698) 
CHEMBL3596095

>  <bao_format>  (698) 
BAO_0000357

>  <data_validity_description>  (698) 
None

>  <activity_id>  (698) 
15662921

>  <standard_type>  (698) 
IC50

>  <target_chembl_id>  (698) 
CHEMBL1862

>  <data_validity_comment>  (698) 
None

>  <published_value>  (698) 
213.5

>  <document_year>  (698) 
2015

>  <target_pref_name>  (698) 
Tyrosine-protein kinase ABL

>  <assay_chembl_id>  (698) 
CHEMBL3600047

>  <standard_relation>  (698) 
=

>  <assay_description>  (698) 
Inhibition of BCR-ABL1 (unknown origin) assessed as ATP remaining by Kinase-Glo luminescent kinase assay

>  <published_relation>  (698) 
=

>  <standard_value>  (698) 
213.5

>  <qudt_units>  (698) 
http://www.openphacts.org/units/Nanomolar

>  <target_tax_id>  (698) 
9606

>  <bao_label>  (698) 
single protein format

>  <published_units>  (698) 
nM

>  <pchembl_value>  (698) 
6.67

>  <published_type>  (698) 
IC50

>  <activity_comment>  (698) 
None

$$$$

     RDKit          

 28 31  0  0  0  0  0  0  0  0999 V2000
    0.0000    0.0000    0.0000 C   0  0  0  0  0  0  0  0  0  0  0  0
    0.0000    0.0000    0.0000 C   0  0  0  0  0  0  0  0  0  0  0  0
    0.0000    0.0000    0.0000 C   0  0  0  0  0  0  0  0  0  0  0  0
    0.0000    0.0000    0.0000 C   0  0  0  0  0  0  0  0  0  0  0  0
    0.0000    0.0000    0.0000 C   0  0  0  0  0  0  0  0  0  0  0  0
    0.0000    0.0000    0.0000 N   0  0  0  0  0  0  0  0  0  0  0  0
    0.0000    0.0000    0.0000 C   0  0  0  0  0  0  0  0  0  0  0  0
    0.0000    0.0000    0.0000 O   0  0  0  0  0  0  0  0  0  0  0  0
    0.0000    0.0000    0.0000 C   0  0  0  0  0  0  0  0  0  0  0  0
    0.0000    0.0000    0.0000 C   0  0  0  0  0  0  0  0  0  0  0  0
    0.0000    0.0000    0.0000 C   0  0  0  0  0  0  0  0  0  0  0  0
    0.0000    0.0000    0.0000 C   0  0  0  0  0  0  0  0  0  0  0  0
    0.0000    0.0000    0.0000 C   0  0  0  0  0  0  0  0  0  0  0  0
    0.0000    0.0000    0.0000 Cl  0  0  0  0  0  0  0  0  0  0  0  0
    0.0000    0.0000    0.0000 C   0  0  0  0  0  0  0  0  0  0  0  0
    0.0000    0.0000    0.0000 C   0  0  0  0  0  0  0  0  0  0  0  0
    0.0000    0.0000    0.0000 C   0  0  0  0  0  0  0  0  0  0  0  0
    0.0000    0.0000    0.0000 N   0  0  0  0  0  0  0  0  0  0  0  0
    0.0000    0.0000    0.0000 C   0  0  0  0  0  0  0  0  0  0  0  0
    0.0000    0.0000    0.0000 C   0  0  0  0  0  0  0  0  0  0  0  0
    0.0000    0.0000    0.0000 C   0  0  0  0  0  0  0  0  0  0  0  0
    0.0000    0.0000    0.0000 N   0  0  0  0  0  0  0  0  0  0  0  0
    0.0000    0.0000    0.0000 C   0  0  0  0  0  0  0  0  0  0  0  0
    0.0000    0.0000    0.0000 C   0  0  0  0  0  0  0  0  0  0  0  0
    0.0000    0.0000    0.0000 C   0  0  0  0  0  0  0  0  0  0  0  0
    0.0000    0.0000    0.0000 C   0  0  0  0  0  0  0  0  0  0  0  0
    0.0000    0.0000    0.0000 N   0  0  0  0  0  0  0  0  0  0  0  0
    0.0000    0.0000    0.0000 C   0  0  0  0  0  0  0  0  0  0  0  0
  1  2  1  0
  2  3  2  0
  3  4  1  0
  4  5  2  0
  5  6  1  0
  6  7  1  0
  7  8  2  0
  7  9  1  0
  9 10  2  0
 10 11  1  0
 11 12  2  0
 12 13  1  0
 13 14  1  0
 13 15  2  0
  5 16  1  0
 16 17  2  0
 17 18  1  0
 18 19  1  0
 19 20  2  0
 20 21  1  0
 21 22  2  0
 20 23  1  0
 23 24  2  0
 24 25  1  0
 25 26  2  0
 26 27  1  0
 27 28  2  0
 17  2  1  0
 15  9  1  0
 22 18  1  0
 28 23  1  0
M  END
>  <pIC50>  (699) 
7.8

>  <ChEMBL_ID>  (699) 
CHEMBL3597606

>  <document_journal>  (699) 
Bioorg. Med. Chem.

>  <bao_endpoint>  (699) 
BAO_0000190

>  <potential_duplicate>  (699) 
False

>  <uo_units>  (699) 
UO_0000065

>  <canonical_smiles>  (699) 
Cc1ccc(NC(=O)c2cccc(Cl)c2)cc1n3cc(cn3)c4cccnc4

>  <parent_molecule_chembl_id>  (699) 
CHEMBL3597606

>  <assay_type>  (699) 
B

>  <src_id>  (699) 
1

>  <ligand_efficiency>  (699) 
{u'le': u'0.38', u'bei': u'20.06', u'sei': u'13.04', u'lle': u'3.44'}

>  <standard_flag>  (699) 
True

>  <molecule_chembl_id>  (699) 
CHEMBL3597606

>  <target_organism>  (699) 
Homo sapiens

>  <standard_units>  (699) 
nM

>  <record_id>  (699) 
2490959

>  <document_chembl_id>  (699) 
CHEMBL3596095

>  <bao_format>  (699) 
BAO_0000357

>  <data_validity_description>  (699) 
None

>  <activity_id>  (699) 
15662922

>  <standard_type>  (699) 
IC50

>  <target_chembl_id>  (699) 
CHEMBL1862

>  <data_validity_comment>  (699) 
None

>  <published_value>  (699) 
15.9

>  <document_year>  (699) 
2015

>  <target_pref_name>  (699) 
Tyrosine-protein kinase ABL

>  <assay_chembl_id>  (699) 
CHEMBL3600047

>  <standard_relation>  (699) 
=

>  <assay_description>  (699) 
Inhibition of BCR-ABL1 (unknown origin) assessed as ATP remaining by Kinase-Glo luminescent kinase assay

>  <published_relation>  (699) 
=

>  <standard_value>  (699) 
15.9

>  <qudt_units>  (699) 
http://www.openphacts.org/units/Nanomolar

>  <target_tax_id>  (699) 
9606

>  <bao_label>  (699) 
single protein format

>  <published_units>  (699) 
nM

>  <pchembl_value>  (699) 
7.8

>  <published_type>  (699) 
IC50

>  <activity_comment>  (699) 
None

$$$$

     RDKit          

 31 34  0  0  0  0  0  0  0  0999 V2000
    0.0000    0.0000    0.0000 C   0  0  0  0  0  0  0  0  0  0  0  0
    0.0000    0.0000    0.0000 C   0  0  0  0  0  0  0  0  0  0  0  0
    0.0000    0.0000    0.0000 C   0  0  0  0  0  0  0  0  0  0  0  0
    0.0000    0.0000    0.0000 C   0  0  0  0  0  0  0  0  0  0  0  0
    0.0000    0.0000    0.0000 C   0  0  0  0  0  0  0  0  0  0  0  0
    0.0000    0.0000    0.0000 N   0  0  0  0  0  0  0  0  0  0  0  0
    0.0000    0.0000    0.0000 C   0  0  0  0  0  0  0  0  0  0  0  0
    0.0000    0.0000    0.0000 O   0  0  0  0  0  0  0  0  0  0  0  0
    0.0000    0.0000    0.0000 C   0  0  0  0  0  0  0  0  0  0  0  0
    0.0000    0.0000    0.0000 C   0  0  0  0  0  0  0  0  0  0  0  0
    0.0000    0.0000    0.0000 C   0  0  0  0  0  0  0  0  0  0  0  0
    0.0000    0.0000    0.0000 C   0  0  0  0  0  0  0  0  0  0  0  0
    0.0000    0.0000    0.0000 C   0  0  0  0  0  0  0  0  0  0  0  0
    0.0000    0.0000    0.0000 C   0  0  0  0  0  0  0  0  0  0  0  0
    0.0000    0.0000    0.0000 C   0  0  0  0  0  0  0  0  0  0  0  0
    0.0000    0.0000    0.0000 F   0  0  0  0  0  0  0  0  0  0  0  0
    0.0000    0.0000    0.0000 F   0  0  0  0  0  0  0  0  0  0  0  0
    0.0000    0.0000    0.0000 F   0  0  0  0  0  0  0  0  0  0  0  0
    0.0000    0.0000    0.0000 C   0  0  0  0  0  0  0  0  0  0  0  0
    0.0000    0.0000    0.0000 C   0  0  0  0  0  0  0  0  0  0  0  0
    0.0000    0.0000    0.0000 N   0  0  0  0  0  0  0  0  0  0  0  0
    0.0000    0.0000    0.0000 C   0  0  0  0  0  0  0  0  0  0  0  0
    0.0000    0.0000    0.0000 C   0  0  0  0  0  0  0  0  0  0  0  0
    0.0000    0.0000    0.0000 C   0  0  0  0  0  0  0  0  0  0  0  0
    0.0000    0.0000    0.0000 N   0  0  0  0  0  0  0  0  0  0  0  0
    0.0000    0.0000    0.0000 C   0  0  0  0  0  0  0  0  0  0  0  0
    0.0000    0.0000    0.0000 C   0  0  0  0  0  0  0  0  0  0  0  0
    0.0000    0.0000    0.0000 C   0  0  0  0  0  0  0  0  0  0  0  0
    0.0000    0.0000    0.0000 C   0  0  0  0  0  0  0  0  0  0  0  0
    0.0000    0.0000    0.0000 N   0  0  0  0  0  0  0  0  0  0  0  0
    0.0000    0.0000    0.0000 C   0  0  0  0  0  0  0  0  0  0  0  0
  1  2  1  0
  2  3  2  0
  3  4  1  0
  4  5  2  0
  5  6  1  0
  6  7  1  0
  7  8  2  0
  7  9  1  0
  9 10  2  0
 10 11  1  0
 11 12  2  0
 12 13  1  0
 13 14  2  0
 13 15  1  0
 15 16  1  0
 15 17  1  0
 15 18  1  0
  5 19  1  0
 19 20  2  0
 20 21  1  0
 21 22  1  0
 22 23  2  0
 23 24  1  0
 24 25  2  0
 23 26  1  0
 26 27  2  0
 27 28  1  0
 28 29  2  0
 29 30  1  0
 30 31  2  0
 20  2  1  0
 14  9  1  0
 25 21  1  0
 31 26  1  0
M  END
>  <pIC50>  (700) 
7.85

>  <ChEMBL_ID>  (700) 
CHEMBL3597605

>  <document_journal>  (700) 
Bioorg. Med. Chem.

>  <bao_endpoint>  (700) 
BAO_0000190

>  <potential_duplicate>  (700) 
False

>  <uo_units>  (700) 
UO_0000065

>  <canonical_smiles>  (700) 
Cc1ccc(NC(=O)c2cccc(c2)C(F)(F)F)cc1n3cc(cn3)c4cccnc4

>  <parent_molecule_chembl_id>  (700) 
CHEMBL3597605

>  <assay_type>  (700) 
B

>  <src_id>  (700) 
1

>  <ligand_efficiency>  (700) 
{u'le': u'0.35', u'bei': u'18.58', u'sei': u'13.12', u'lle': u'3.21'}

>  <standard_flag>  (700) 
True

>  <molecule_chembl_id>  (700) 
CHEMBL3597605

>  <target_organism>  (700) 
Homo sapiens

>  <standard_units>  (700) 
nM

>  <record_id>  (700) 
2490958

>  <document_chembl_id>  (700) 
CHEMBL3596095

>  <bao_format>  (700) 
BAO_0000357

>  <data_validity_description>  (700) 
None

>  <activity_id>  (700) 
15662923

>  <standard_type>  (700) 
IC50

>  <target_chembl_id>  (700) 
CHEMBL1862

>  <data_validity_comment>  (700) 
None

>  <published_value>  (700) 
14.2

>  <document_year>  (700) 
2015

>  <target_pref_name>  (700) 
Tyrosine-protein kinase ABL

>  <assay_chembl_id>  (700) 
CHEMBL3600047

>  <standard_relation>  (700) 
=

>  <assay_description>  (700) 
Inhibition of BCR-ABL1 (unknown origin) assessed as ATP remaining by Kinase-Glo luminescent kinase assay

>  <published_relation>  (700) 
=

>  <standard_value>  (700) 
14.2

>  <qudt_units>  (700) 
http://www.openphacts.org/units/Nanomolar

>  <target_tax_id>  (700) 
9606

>  <bao_label>  (700) 
single protein format

>  <published_units>  (700) 
nM

>  <pchembl_value>  (700) 
7.85

>  <published_type>  (700) 
IC50

>  <activity_comment>  (700) 
None

$$$$

     RDKit          

 40 45  0  0  0  0  0  0  0  0999 V2000
    0.0000    0.0000    0.0000 C   0  0  0  0  0  0  0  0  0  0  0  0
    0.0000    0.0000    0.0000 N   0  0  0  0  0  0  0  0  0  0  0  0
    0.0000    0.0000    0.0000 C   0  0  0  0  0  0  0  0  0  0  0  0
    0.0000    0.0000    0.0000 C   0  0  0  0  0  0  0  0  0  0  0  0
    0.0000    0.0000    0.0000 C   0  0  0  0  0  0  0  0  0  0  0  0
    0.0000    0.0000    0.0000 C   0  0  0  0  0  0  0  0  0  0  0  0
    0.0000    0.0000    0.0000 N   0  0  0  0  0  0  0  0  0  0  0  0
    0.0000    0.0000    0.0000 C   0  0  0  0  0  0  0  0  0  0  0  0
    0.0000    0.0000    0.0000 C   0  0  0  0  0  0  0  0  0  0  0  0
    0.0000    0.0000    0.0000 C   0  0  0  0  0  0  0  0  0  0  0  0
    0.0000    0.0000    0.0000 C   0  0  0  0  0  0  0  0  0  0  0  0
    0.0000    0.0000    0.0000 C   0  0  0  0  0  0  0  0  0  0  0  0
    0.0000    0.0000    0.0000 C   0  0  0  0  0  0  0  0  0  0  0  0
    0.0000    0.0000    0.0000 C   0  0  0  0  0  0  0  0  0  0  0  0
    0.0000    0.0000    0.0000 C   0  0  0  0  0  0  0  0  0  0  0  0
    0.0000    0.0000    0.0000 C   0  0  0  0  0  0  0  0  0  0  0  0
    0.0000    0.0000    0.0000 C   0  0  0  0  0  0  0  0  0  0  0  0
    0.0000    0.0000    0.0000 C   0  0  0  0  0  0  0  0  0  0  0  0
    0.0000    0.0000    0.0000 O   0  0  0  0  0  0  0  0  0  0  0  0
    0.0000    0.0000    0.0000 N   0  0  0  0  0  0  0  0  0  0  0  0
    0.0000    0.0000    0.0000 C   0  0  0  0  0  0  0  0  0  0  0  0
    0.0000    0.0000    0.0000 C   0  0  0  0  0  0  0  0  0  0  0  0
    0.0000    0.0000    0.0000 C   0  0  0  0  0  0  0  0  0  0  0  0
    0.0000    0.0000    0.0000 C   0  0  0  0  0  0  0  0  0  0  0  0
    0.0000    0.0000    0.0000 C   0  0  0  0  0  0  0  0  0  0  0  0
    0.0000    0.0000    0.0000 C   0  0  0  0  0  0  0  0  0  0  0  0
    0.0000    0.0000    0.0000 N   0  0  0  0  0  0  0  0  0  0  0  0
    0.0000    0.0000    0.0000 C   0  0  0  0  0  0  0  0  0  0  0  0
    0.0000    0.0000    0.0000 N   0  0  0  0  0  0  0  0  0  0  0  0
    0.0000    0.0000    0.0000 C   0  0  0  0  0  0  0  0  0  0  0  0
    0.0000    0.0000    0.0000 C   0  0  0  0  0  0  0  0  0  0  0  0
    0.0000    0.0000    0.0000 C   0  0  0  0  0  0  0  0  0  0  0  0
    0.0000    0.0000    0.0000 N   0  0  0  0  0  0  0  0  0  0  0  0
    0.0000    0.0000    0.0000 C   0  0  0  0  0  0  0  0  0  0  0  0
    0.0000    0.0000    0.0000 C   0  0  0  0  0  0  0  0  0  0  0  0
    0.0000    0.0000    0.0000 C   0  0  0  0  0  0  0  0  0  0  0  0
    0.0000    0.0000    0.0000 C   0  0  0  0  0  0  0  0  0  0  0  0
    0.0000    0.0000    0.0000 N   0  0  0  0  0  0  0  0  0  0  0  0
    0.0000    0.0000    0.0000 C   0  0  0  0  0  0  0  0  0  0  0  0
    0.0000    0.0000    0.0000 C   0  0  0  0  0  0  0  0  0  0  0  0
  1  2  1  0
  2  3  1  0
  2  4  1  0
  4  5  1  0
  5  6  1  0
  6  7  1  0
  7  8  1  0
  7  9  1  0
  9 10  1  0
 10 11  1  0
 11 12  1  0
 12 13  2  0
 13 14  1  0
 14 15  2  0
 15 16  1  0
 16 17  2  0
 14 18  1  0
 18 19  2  0
 18 20  1  0
 20 21  1  0
 21 22  2  0
 22 23  1  0
 23 24  2  0
 24 25  1  0
 24 26  1  0
 26 27  1  0
 27 28  1  0
 28 29  2  0
 29 30  1  0
 30 31  2  0
 31 32  1  0
 32 33  2  0
 32 34  1  0
 34 35  2  0
 35 36  1  0
 36 37  2  0
 37 38  1  0
 38 39  2  0
 26 40  2  0
  8  4  1  0
 17  9  1  0
 17 12  1  0
 40 21  1  0
 33 28  1  0
 39 34  1  0
M  END
>  <pIC50>  (701) 
6.92

>  <ChEMBL_ID>  (701) 
CHEMBL3690080

>  <document_journal>  (701) 
None

>  <bao_endpoint>  (701) 
BAO_0000190

>  <potential_duplicate>  (701) 
None

>  <uo_units>  (701) 
UO_0000065

>  <canonical_smiles>  (701) 
CN(C)C1CCN(C1)C2CCc3cc(ccc23)C(=O)Nc4ccc(C)c(Nc5nccc(n5)c6cccnc6)c4

>  <parent_molecule_chembl_id>  (701) 
CHEMBL3690080

>  <assay_type>  (701) 
B

>  <src_id>  (701) 
37

>  <ligand_efficiency>  (701) 
{u'le': u'0.24', u'bei': u'12.96', u'sei': u'8.02', u'lle': u'2.05'}

>  <standard_flag>  (701) 
True

>  <molecule_chembl_id>  (701) 
CHEMBL3690080

>  <target_organism>  (701) 
Homo sapiens

>  <standard_units>  (701) 
nM

>  <record_id>  (701) 
2566582

>  <document_chembl_id>  (701) 
CHEMBL3639364

>  <bao_format>  (701) 
BAO_0000357

>  <data_validity_description>  (701) 
None

>  <activity_id>  (701) 
16260216

>  <standard_type>  (701) 
IC50

>  <target_chembl_id>  (701) 
CHEMBL1862

>  <data_validity_comment>  (701) 
None

>  <published_value>  (701) 
121

>  <document_year>  (701) 
2014

>  <target_pref_name>  (701) 
Tyrosine-protein kinase ABL

>  <assay_chembl_id>  (701) 
CHEMBL3705219

>  <standard_relation>  (701) 
=

>  <assay_description>  (701) 
BindingDB_Patents: Enzyme Assay. The activity of the compounds of this invention on Abl, c-Kit and PDGFR kinases was tested by Mobility Shift Assay (MSA). Kinase buffer: 62.5 mM HEPES, pH 7.5; 0.001875% Brij-35; 12.5 mM MgCl2; 2.5 mM DTT. Stop buffer: 100 mM HEPES, pH 7.5; 0.015% Brij-35; 0.2% coating agent 3; 50 mM EDTA. Preparation of kinase solution: Kinase solution was obtained by dissolving kinases in the kinase buffer mentioned above. With regard to c-Kit kinase, the pre-activation treatments should be carried out as follows. 700 nM c-Kit, 2 mM ATP, 4 mM DTT and 10 mM MgCl2 were dissolved in kinase buffer. After being incubated at 28° C. for 15 minutes, the solution was added to the kinase buffer.

>  <published_relation>  (701) 
=

>  <standard_value>  (701) 
121

>  <qudt_units>  (701) 
http://www.openphacts.org/units/Nanomolar

>  <target_tax_id>  (701) 
9606

>  <bao_label>  (701) 
single protein format

>  <published_units>  (701) 
nM

>  <pchembl_value>  (701) 
6.92

>  <published_type>  (701) 
IC50

>  <activity_comment>  (701) 
248421

$$$$

     RDKit          

 40 45  0  0  0  0  0  0  0  0999 V2000
    0.0000    0.0000    0.0000 C   0  0  0  0  0  0  0  0  0  0  0  0
    0.0000    0.0000    0.0000 N   0  0  0  0  0  0  0  0  0  0  0  0
    0.0000    0.0000    0.0000 C   0  0  0  0  0  0  0  0  0  0  0  0
    0.0000    0.0000    0.0000 C   0  0  0  0  0  0  0  0  0  0  0  0
    0.0000    0.0000    0.0000 C   0  0  0  0  0  0  0  0  0  0  0  0
    0.0000    0.0000    0.0000 C   0  0  0  0  0  0  0  0  0  0  0  0
    0.0000    0.0000    0.0000 N   0  0  0  0  0  0  0  0  0  0  0  0
    0.0000    0.0000    0.0000 C   0  0  0  0  0  0  0  0  0  0  0  0
    0.0000    0.0000    0.0000 C   0  0  0  0  0  0  0  0  0  0  0  0
    0.0000    0.0000    0.0000 C   0  0  0  0  0  0  0  0  0  0  0  0
    0.0000    0.0000    0.0000 C   0  0  0  0  0  0  0  0  0  0  0  0
    0.0000    0.0000    0.0000 C   0  0  0  0  0  0  0  0  0  0  0  0
    0.0000    0.0000    0.0000 C   0  0  0  0  0  0  0  0  0  0  0  0
    0.0000    0.0000    0.0000 C   0  0  0  0  0  0  0  0  0  0  0  0
    0.0000    0.0000    0.0000 C   0  0  0  0  0  0  0  0  0  0  0  0
    0.0000    0.0000    0.0000 C   0  0  0  0  0  0  0  0  0  0  0  0
    0.0000    0.0000    0.0000 C   0  0  0  0  0  0  0  0  0  0  0  0
    0.0000    0.0000    0.0000 C   0  0  0  0  0  0  0  0  0  0  0  0
    0.0000    0.0000    0.0000 O   0  0  0  0  0  0  0  0  0  0  0  0
    0.0000    0.0000    0.0000 N   0  0  0  0  0  0  0  0  0  0  0  0
    0.0000    0.0000    0.0000 C   0  0  0  0  0  0  0  0  0  0  0  0
    0.0000    0.0000    0.0000 C   0  0  0  0  0  0  0  0  0  0  0  0
    0.0000    0.0000    0.0000 C   0  0  0  0  0  0  0  0  0  0  0  0
    0.0000    0.0000    0.0000 C   0  0  0  0  0  0  0  0  0  0  0  0
    0.0000    0.0000    0.0000 C   0  0  0  0  0  0  0  0  0  0  0  0
    0.0000    0.0000    0.0000 C   0  0  0  0  0  0  0  0  0  0  0  0
    0.0000    0.0000    0.0000 N   0  0  0  0  0  0  0  0  0  0  0  0
    0.0000    0.0000    0.0000 C   0  0  0  0  0  0  0  0  0  0  0  0
    0.0000    0.0000    0.0000 N   0  0  0  0  0  0  0  0  0  0  0  0
    0.0000    0.0000    0.0000 C   0  0  0  0  0  0  0  0  0  0  0  0
    0.0000    0.0000    0.0000 C   0  0  0  0  0  0  0  0  0  0  0  0
    0.0000    0.0000    0.0000 C   0  0  0  0  0  0  0  0  0  0  0  0
    0.0000    0.0000    0.0000 N   0  0  0  0  0  0  0  0  0  0  0  0
    0.0000    0.0000    0.0000 C   0  0  0  0  0  0  0  0  0  0  0  0
    0.0000    0.0000    0.0000 C   0  0  0  0  0  0  0  0  0  0  0  0
    0.0000    0.0000    0.0000 C   0  0  0  0  0  0  0  0  0  0  0  0
    0.0000    0.0000    0.0000 C   0  0  0  0  0  0  0  0  0  0  0  0
    0.0000    0.0000    0.0000 N   0  0  0  0  0  0  0  0  0  0  0  0
    0.0000    0.0000    0.0000 C   0  0  0  0  0  0  0  0  0  0  0  0
    0.0000    0.0000    0.0000 C   0  0  0  0  0  0  0  0  0  0  0  0
  1  2  1  0
  2  3  1  0
  2  4  1  0
  4  5  1  0
  5  6  1  0
  6  7  1  0
  7  8  1  0
  7  9  1  0
  9 10  1  0
 10 11  1  0
 11 12  1  0
 12 13  2  0
 13 14  1  0
 14 15  2  0
 15 16  1  0
 16 17  2  0
 14 18  1  0
 18 19  2  0
 18 20  1  0
 20 21  1  0
 21 22  2  0
 22 23  1  0
 23 24  2  0
 24 25  1  0
 24 26  1  0
 26 27  1  0
 27 28  1  0
 28 29  2  0
 29 30  1  0
 30 31  2  0
 31 32  1  0
 32 33  2  0
 32 34  1  0
 34 35  2  0
 35 36  1  0
 36 37  2  0
 37 38  1  0
 38 39  2  0
 26 40  2  0
  8  4  1  0
 17  9  1  0
 17 12  1  0
 40 21  1  0
 33 28  1  0
 39 34  1  0
M  END
>  <pIC50>  (702) 
7.16

>  <ChEMBL_ID>  (702) 
CHEMBL3690081

>  <document_journal>  (702) 
None

>  <bao_endpoint>  (702) 
BAO_0000190

>  <potential_duplicate>  (702) 
None

>  <uo_units>  (702) 
UO_0000065

>  <canonical_smiles>  (702) 
CN(C)[C@@H]1CCN(C1)C2CCc3cc(ccc23)C(=O)Nc4ccc(C)c(Nc5nccc(n5)c6cccnc6)c4

>  <parent_molecule_chembl_id>  (702) 
CHEMBL3690081

>  <assay_type>  (702) 
B

>  <src_id>  (702) 
37

>  <ligand_efficiency>  (702) 
{u'le': u'0.24', u'bei': u'13.41', u'sei': u'8.29', u'lle': u'2.28'}

>  <standard_flag>  (702) 
True

>  <molecule_chembl_id>  (702) 
CHEMBL3690081

>  <target_organism>  (702) 
Homo sapiens

>  <standard_units>  (702) 
nM

>  <record_id>  (702) 
2566583

>  <document_chembl_id>  (702) 
CHEMBL3639364

>  <bao_format>  (702) 
BAO_0000357

>  <data_validity_description>  (702) 
None

>  <activity_id>  (702) 
16263490

>  <standard_type>  (702) 
IC50

>  <target_chembl_id>  (702) 
CHEMBL1862

>  <data_validity_comment>  (702) 
None

>  <published_value>  (702) 
70

>  <document_year>  (702) 
2014

>  <target_pref_name>  (702) 
Tyrosine-protein kinase ABL

>  <assay_chembl_id>  (702) 
CHEMBL3705219

>  <standard_relation>  (702) 
=

>  <assay_description>  (702) 
BindingDB_Patents: Enzyme Assay. The activity of the compounds of this invention on Abl, c-Kit and PDGFR kinases was tested by Mobility Shift Assay (MSA). Kinase buffer: 62.5 mM HEPES, pH 7.5; 0.001875% Brij-35; 12.5 mM MgCl2; 2.5 mM DTT. Stop buffer: 100 mM HEPES, pH 7.5; 0.015% Brij-35; 0.2% coating agent 3; 50 mM EDTA. Preparation of kinase solution: Kinase solution was obtained by dissolving kinases in the kinase buffer mentioned above. With regard to c-Kit kinase, the pre-activation treatments should be carried out as follows. 700 nM c-Kit, 2 mM ATP, 4 mM DTT and 10 mM MgCl2 were dissolved in kinase buffer. After being incubated at 28° C. for 15 minutes, the solution was added to the kinase buffer.

>  <published_relation>  (702) 
=

>  <standard_value>  (702) 
70

>  <qudt_units>  (702) 
http://www.openphacts.org/units/Nanomolar

>  <target_tax_id>  (702) 
9606

>  <bao_label>  (702) 
single protein format

>  <published_units>  (702) 
nM

>  <pchembl_value>  (702) 
7.16

>  <published_type>  (702) 
IC50

>  <activity_comment>  (702) 
248422

$$$$

     RDKit          

 34 41  0  0  0  0  0  0  0  0999 V2000
    0.0000    0.0000    0.0000 C   0  0  0  0  0  0  0  0  0  0  0  0
    0.0000    0.0000    0.0000 N   0  0  0  0  0  0  0  0  0  0  0  0
    0.0000    0.0000    0.0000 C   0  0  0  0  0  0  0  0  0  0  0  0
    0.0000    0.0000    0.0000 C   0  0  0  0  0  0  0  0  0  0  0  0
    0.0000    0.0000    0.0000 C   0  0  0  0  0  0  0  0  0  0  0  0
    0.0000    0.0000    0.0000 O   0  0  0  0  0  0  0  0  0  0  0  0
    0.0000    0.0000    0.0000 C   0  0  0  0  0  0  0  0  0  0  0  0
    0.0000    0.0000    0.0000 C   0  0  0  0  0  0  0  0  0  0  0  0
    0.0000    0.0000    0.0000 O   0  0  0  0  0  0  0  0  0  0  0  0
    0.0000    0.0000    0.0000 C   0  0  0  0  0  0  0  0  0  0  0  0
    0.0000    0.0000    0.0000 N   0  0  0  0  0  0  0  0  0  0  0  0
    0.0000    0.0000    0.0000 C   0  0  0  0  0  0  0  0  0  0  0  0
    0.0000    0.0000    0.0000 C   0  0  0  0  0  0  0  0  0  0  0  0
    0.0000    0.0000    0.0000 C   0  0  0  0  0  0  0  0  0  0  0  0
    0.0000    0.0000    0.0000 C   0  0  0  0  0  0  0  0  0  0  0  0
    0.0000    0.0000    0.0000 C   0  0  0  0  0  0  0  0  0  0  0  0
    0.0000    0.0000    0.0000 C   0  0  0  0  0  0  0  0  0  0  0  0
    0.0000    0.0000    0.0000 C   0  0  0  0  0  0  0  0  0  0  0  0
    0.0000    0.0000    0.0000 C   0  0  0  0  0  0  0  0  0  0  0  0
    0.0000    0.0000    0.0000 C   0  0  0  0  0  0  0  0  0  0  0  0
    0.0000    0.0000    0.0000 N   0  0  0  0  0  0  0  0  0  0  0  0
    0.0000    0.0000    0.0000 C   0  0  0  0  0  0  0  0  0  0  0  0
    0.0000    0.0000    0.0000 O   0  0  0  0  0  0  0  0  0  0  0  0
    0.0000    0.0000    0.0000 C   0  0  0  0  0  0  0  0  0  0  0  0
    0.0000    0.0000    0.0000 C   0  0  0  0  0  0  0  0  0  0  0  0
    0.0000    0.0000    0.0000 C   0  0  0  0  0  0  0  0  0  0  0  0
    0.0000    0.0000    0.0000 C   0  0  0  0  0  0  0  0  0  0  0  0
    0.0000    0.0000    0.0000 C   0  0  0  0  0  0  0  0  0  0  0  0
    0.0000    0.0000    0.0000 C   0  0  0  0  0  0  0  0  0  0  0  0
    0.0000    0.0000    0.0000 C   0  0  0  0  0  0  0  0  0  0  0  0
    0.0000    0.0000    0.0000 C   0  0  0  0  0  0  0  0  0  0  0  0
    0.0000    0.0000    0.0000 N   0  0  0  0  0  0  0  0  0  0  0  0
    0.0000    0.0000    0.0000 C   0  0  0  0  0  0  0  0  0  0  0  0
    0.0000    0.0000    0.0000 C   0  0  0  0  0  0  0  0  0  0  0  0
  1  2  1  0
  2  3  1  0
  3  4  1  0
  4  5  1  0
  5  6  1  0
  6  7  1  0
  7  8  1  0
  8  9  1  0
  9 10  1  0
  7 11  1  0
 11 12  1  0
 12 13  2  0
 13 14  1  0
 14 15  2  0
 15 16  1  0
 16 17  2  0
 17 18  1  0
 18 19  2  0
 19 20  1  0
 20 21  1  0
 21 22  1  0
 22 23  2  0
 22 24  1  0
 24 25  2  0
 25 26  1  0
 26 27  2  0
 27 28  1  0
 28 29  2  0
 29 30  1  0
 30 31  2  0
 31 32  1  0
 32 33  1  0
 33 34  2  0
  8  3  1  0
 32  5  1  0
 34 11  1  0
 17 12  1  0
 34 18  1  0
 24 19  1  0
 33 25  1  0
 31 26  1  0
M  END
>  <pIC50>  (703) 
6.835

>  <ChEMBL_ID>  (703) 
CHEMBL3683258

>  <document_journal>  (703) 
None

>  <bao_endpoint>  (703) 
BAO_0000190

>  <potential_duplicate>  (703) 
None

>  <uo_units>  (703) 
UO_0000065

>  <canonical_smiles>  (703) 
CN[C@@H]1CC2OC([C@@H]1OC)n3c4ccccc4c5c6CNC(=O)c6c7c8ccccc8n2c7c35

>  <parent_molecule_chembl_id>  (703) 
CHEMBL3683258

>  <assay_type>  (703) 
B

>  <src_id>  (703) 
37

>  <ligand_efficiency>  (703) 
{u'le': u'0.26', u'bei': u'14.05', u'sei': u'9.16', u'lle': u'2.48'}

>  <standard_flag>  (703) 
True

>  <molecule_chembl_id>  (703) 
CHEMBL3683258

>  <target_organism>  (703) 
Homo sapiens

>  <standard_units>  (703) 
nM

>  <record_id>  (703) 
2579949

>  <document_chembl_id>  (703) 
CHEMBL3639034

>  <bao_format>  (703) 
BAO_0000019

>  <data_validity_description>  (703) 
None

>  <activity_id>  (703) 
16276981

>  <standard_type>  (703) 
IC50

>  <target_chembl_id>  (703) 
CHEMBL1862

>  <data_validity_comment>  (703) 
None

>  <published_value>  (703) 
438.1

>  <document_year>  (703) 
2014

>  <target_pref_name>  (703) 
Tyrosine-protein kinase ABL

>  <assay_chembl_id>  (703) 
CHEMBL3707771

>  <standard_relation>  (703) 
=

>  <assay_description>  (703) 
BindingDB_Patents: Kinase Inhibition Assay. The compound of Example 39, 2-(1H-indol-5-ylamino)-6-(2,4-difluorophenylsulfonyl)-8-methylpyrido[2,3-d]pyrimidin-7(8H)-one, was subjected to a kinase inhibition assay for the kinases. Compounds were tested in 5 dose IC50 mode with 10-fold serial dilution starting at 10 uM. Staurosporine, a known protein kinase inhibitor, was tested in 5-dose IC50 mode with 3-fold serial dilution starting at 20 uM. Reactions were carried out in 10 uM ATP. The results are shown in Table 5. The results show that the compound of Example 39 is a kinase inhibitor highly selective for the kinase Plk2.

>  <published_relation>  (703) 
=

>  <standard_value>  (703) 
438.1

>  <qudt_units>  (703) 
http://www.openphacts.org/units/Nanomolar

>  <target_tax_id>  (703) 
9606

>  <bao_label>  (703) 
assay format

>  <published_units>  (703) 
nM

>  <pchembl_value>  (703) 
6.36

>  <published_type>  (703) 
IC50

>  <activity_comment>  (703) 
273878

$$$$

     RDKit          

 39 44  0  0  0  0  0  0  0  0999 V2000
    0.0000    0.0000    0.0000 C   0  0  0  0  0  0  0  0  0  0  0  0
    0.0000    0.0000    0.0000 N   0  0  0  0  0  0  0  0  0  0  0  0
    0.0000    0.0000    0.0000 C   0  0  0  0  0  0  0  0  0  0  0  0
    0.0000    0.0000    0.0000 C   0  0  0  0  0  0  0  0  0  0  0  0
    0.0000    0.0000    0.0000 N   0  0  0  0  0  0  0  0  0  0  0  0
    0.0000    0.0000    0.0000 C   0  0  0  0  0  0  0  0  0  0  0  0
    0.0000    0.0000    0.0000 C   0  0  0  0  0  0  0  0  0  0  0  0
    0.0000    0.0000    0.0000 C   0  0  0  0  0  0  0  0  0  0  0  0
    0.0000    0.0000    0.0000 C   0  0  0  0  0  0  0  0  0  0  0  0
    0.0000    0.0000    0.0000 C   0  0  0  0  0  0  0  0  0  0  0  0
    0.0000    0.0000    0.0000 C   0  0  0  0  0  0  0  0  0  0  0  0
    0.0000    0.0000    0.0000 C   0  0  0  0  0  0  0  0  0  0  0  0
    0.0000    0.0000    0.0000 C   0  0  0  0  0  0  0  0  0  0  0  0
    0.0000    0.0000    0.0000 C   0  0  0  0  0  0  0  0  0  0  0  0
    0.0000    0.0000    0.0000 C   0  0  0  0  0  0  0  0  0  0  0  0
    0.0000    0.0000    0.0000 C   0  0  0  0  0  0  0  0  0  0  0  0
    0.0000    0.0000    0.0000 C   0  0  0  0  0  0  0  0  0  0  0  0
    0.0000    0.0000    0.0000 O   0  0  0  0  0  0  0  0  0  0  0  0
    0.0000    0.0000    0.0000 N   0  0  0  0  0  0  0  0  0  0  0  0
    0.0000    0.0000    0.0000 C   0  0  0  0  0  0  0  0  0  0  0  0
    0.0000    0.0000    0.0000 C   0  0  0  0  0  0  0  0  0  0  0  0
    0.0000    0.0000    0.0000 C   0  0  0  0  0  0  0  0  0  0  0  0
    0.0000    0.0000    0.0000 C   0  0  0  0  0  0  0  0  0  0  0  0
    0.0000    0.0000    0.0000 C   0  0  0  0  0  0  0  0  0  0  0  0
    0.0000    0.0000    0.0000 C   0  0  0  0  0  0  0  0  0  0  0  0
    0.0000    0.0000    0.0000 N   0  0  0  0  0  0  0  0  0  0  0  0
    0.0000    0.0000    0.0000 C   0  0  0  0  0  0  0  0  0  0  0  0
    0.0000    0.0000    0.0000 N   0  0  0  0  0  0  0  0  0  0  0  0
    0.0000    0.0000    0.0000 C   0  0  0  0  0  0  0  0  0  0  0  0
    0.0000    0.0000    0.0000 C   0  0  0  0  0  0  0  0  0  0  0  0
    0.0000    0.0000    0.0000 C   0  0  0  0  0  0  0  0  0  0  0  0
    0.0000    0.0000    0.0000 N   0  0  0  0  0  0  0  0  0  0  0  0
    0.0000    0.0000    0.0000 C   0  0  0  0  0  0  0  0  0  0  0  0
    0.0000    0.0000    0.0000 C   0  0  0  0  0  0  0  0  0  0  0  0
    0.0000    0.0000    0.0000 N   0  0  0  0  0  0  0  0  0  0  0  0
    0.0000    0.0000    0.0000 C   0  0  0  0  0  0  0  0  0  0  0  0
    0.0000    0.0000    0.0000 N   0  0  0  0  0  0  0  0  0  0  0  0
    0.0000    0.0000    0.0000 C   0  0  0  0  0  0  0  0  0  0  0  0
    0.0000    0.0000    0.0000 C   0  0  0  0  0  0  0  0  0  0  0  0
  1  2  1  0
  2  3  1  0
  3  4  1  0
  4  5  1  0
  5  6  1  0
  6  7  1  0
  5  8  1  0
  8  9  1  0
  9 10  1  0
 10 11  1  0
 11 12  2  0
 12 13  1  0
 13 14  2  0
 14 15  1  0
 15 16  2  0
 13 17  1  0
 17 18  2  0
 17 19  1  0
 19 20  1  0
 20 21  2  0
 21 22  1  0
 22 23  2  0
 23 24  1  0
 23 25  1  0
 25 26  1  0
 26 27  1  0
 27 28  2  0
 28 29  1  0
 29 30  2  0
 30 31  1  0
 31 32  2  0
 31 33  1  0
 33 34  2  0
 34 35  1  0
 35 36  2  0
 36 37  1  0
 37 38  2  0
 25 39  2  0
  7  2  1  0
 16  8  1  0
 16 11  1  0
 39 20  1  0
 32 27  1  0
 38 33  1  0
M  END
>  <pIC50>  (704) 
7.82666666667

>  <ChEMBL_ID>  (704) 
CHEMBL3690079

>  <document_journal>  (704) 
None

>  <bao_endpoint>  (704) 
BAO_0000190

>  <potential_duplicate>  (704) 
None

>  <uo_units>  (704) 
UO_0000065

>  <canonical_smiles>  (704) 
CN1CCN(CC1)C2CCc3cc(ccc23)C(=O)Nc4ccc(C)c(Nc5nccc(n5)c6cncnc6)c4

>  <parent_molecule_chembl_id>  (704) 
CHEMBL3690079

>  <assay_type>  (704) 
B

>  <src_id>  (704) 
37

>  <ligand_efficiency>  (704) 
{u'le': u'0.3', u'bei': u'16.56', u'sei': u'8.69', u'lle': u'4.47'}

>  <standard_flag>  (704) 
True

>  <molecule_chembl_id>  (704) 
CHEMBL3690079

>  <target_organism>  (704) 
Homo sapiens

>  <standard_units>  (704) 
nM

>  <record_id>  (704) 
2566581

>  <document_chembl_id>  (704) 
CHEMBL3639364

>  <bao_format>  (704) 
BAO_0000357

>  <data_validity_description>  (704) 
None

>  <activity_id>  (704) 
16284194

>  <standard_type>  (704) 
IC50

>  <target_chembl_id>  (704) 
CHEMBL1862

>  <data_validity_comment>  (704) 
None

>  <published_value>  (704) 
2.4

>  <document_year>  (704) 
2014

>  <target_pref_name>  (704) 
Tyrosine-protein kinase ABL

>  <assay_chembl_id>  (704) 
CHEMBL3705219

>  <standard_relation>  (704) 
=

>  <assay_description>  (704) 
BindingDB_Patents: Enzyme Assay. The activity of the compounds of this invention on Abl, c-Kit and PDGFR kinases was tested by Mobility Shift Assay (MSA). Kinase buffer: 62.5 mM HEPES, pH 7.5; 0.001875% Brij-35; 12.5 mM MgCl2; 2.5 mM DTT. Stop buffer: 100 mM HEPES, pH 7.5; 0.015% Brij-35; 0.2% coating agent 3; 50 mM EDTA. Preparation of kinase solution: Kinase solution was obtained by dissolving kinases in the kinase buffer mentioned above. With regard to c-Kit kinase, the pre-activation treatments should be carried out as follows. 700 nM c-Kit, 2 mM ATP, 4 mM DTT and 10 mM MgCl2 were dissolved in kinase buffer. After being incubated at 28° C. for 15 minutes, the solution was added to the kinase buffer.

>  <published_relation>  (704) 
=

>  <standard_value>  (704) 
2.4

>  <qudt_units>  (704) 
http://www.openphacts.org/units/Nanomolar

>  <target_tax_id>  (704) 
9606

>  <bao_label>  (704) 
single protein format

>  <published_units>  (704) 
nM

>  <pchembl_value>  (704) 
8.62

>  <published_type>  (704) 
IC50

>  <activity_comment>  (704) 
248425

$$$$

     RDKit          

 45 50  0  0  0  0  0  0  0  0999 V2000
    0.0000    0.0000    0.0000 C   0  0  0  0  0  0  0  0  0  0  0  0
    0.0000    0.0000    0.0000 C   0  0  0  0  0  0  0  0  0  0  0  0
    0.0000    0.0000    0.0000 C   0  0  0  0  0  0  0  0  0  0  0  0
    0.0000    0.0000    0.0000 C   0  0  0  0  0  0  0  0  0  0  0  0
    0.0000    0.0000    0.0000 C   0  0  0  0  0  0  0  0  0  0  0  0
    0.0000    0.0000    0.0000 N   0  0  0  0  0  0  0  0  0  0  0  0
    0.0000    0.0000    0.0000 C   0  0  0  0  0  0  0  0  0  0  0  0
    0.0000    0.0000    0.0000 O   0  0  0  0  0  0  0  0  0  0  0  0
    0.0000    0.0000    0.0000 C   0  0  0  0  0  0  0  0  0  0  0  0
    0.0000    0.0000    0.0000 C   0  0  0  0  0  0  0  0  0  0  0  0
    0.0000    0.0000    0.0000 C   0  0  0  0  0  0  0  0  0  0  0  0
    0.0000    0.0000    0.0000 C   0  0  0  0  0  0  0  0  0  0  0  0
    0.0000    0.0000    0.0000 C   0  0  0  0  0  0  0  0  0  0  0  0
    0.0000    0.0000    0.0000 C   0  0  0  0  0  0  0  0  0  0  0  0
    0.0000    0.0000    0.0000 C   0  0  0  0  0  0  0  0  0  0  0  0
    0.0000    0.0000    0.0000 C   0  0  0  0  0  0  0  0  0  0  0  0
    0.0000    0.0000    0.0000 C   0  0  0  0  0  0  0  0  0  0  0  0
    0.0000    0.0000    0.0000 N   0  0  0  0  0  0  0  0  0  0  0  0
    0.0000    0.0000    0.0000 C   0  0  0  0  0  0  0  0  0  0  0  0
    0.0000    0.0000    0.0000 C   0  0  0  0  0  0  0  0  0  0  0  0
    0.0000    0.0000    0.0000 N   0  0  0  0  0  0  0  0  0  0  0  0
    0.0000    0.0000    0.0000 C   0  0  0  0  0  0  0  0  0  0  0  0
    0.0000    0.0000    0.0000 C   0  0  0  0  0  0  0  0  0  0  0  0
    0.0000    0.0000    0.0000 C   0  0  0  0  0  0  0  0  0  0  0  0
    0.0000    0.0000    0.0000 O   0  0  0  0  0  0  0  0  0  0  0  0
    0.0000    0.0000    0.0000 O   0  0  0  0  0  0  0  0  0  0  0  0
    0.0000    0.0000    0.0000 C   0  0  0  0  0  0  0  0  0  0  0  0
    0.0000    0.0000    0.0000 C   0  0  0  0  0  0  0  0  0  0  0  0
    0.0000    0.0000    0.0000 C   0  0  0  0  0  0  0  0  0  0  0  0
    0.0000    0.0000    0.0000 C   0  0  0  0  0  0  0  0  0  0  0  0
    0.0000    0.0000    0.0000 C   0  0  0  0  0  0  0  0  0  0  0  0
    0.0000    0.0000    0.0000 C   0  0  0  0  0  0  0  0  0  0  0  0
    0.0000    0.0000    0.0000 N   0  0  0  0  0  0  0  0  0  0  0  0
    0.0000    0.0000    0.0000 C   0  0  0  0  0  0  0  0  0  0  0  0
    0.0000    0.0000    0.0000 N   0  0  0  0  0  0  0  0  0  0  0  0
    0.0000    0.0000    0.0000 C   0  0  0  0  0  0  0  0  0  0  0  0
    0.0000    0.0000    0.0000 C   0  0  0  0  0  0  0  0  0  0  0  0
    0.0000    0.0000    0.0000 C   0  0  0  0  0  0  0  0  0  0  0  0
    0.0000    0.0000    0.0000 N   0  0  0  0  0  0  0  0  0  0  0  0
    0.0000    0.0000    0.0000 C   0  0  0  0  0  0  0  0  0  0  0  0
    0.0000    0.0000    0.0000 C   0  0  0  0  0  0  0  0  0  0  0  0
    0.0000    0.0000    0.0000 C   0  0  0  0  0  0  0  0  0  0  0  0
    0.0000    0.0000    0.0000 C   0  0  0  0  0  0  0  0  0  0  0  0
    0.0000    0.0000    0.0000 N   0  0  0  0  0  0  0  0  0  0  0  0
    0.0000    0.0000    0.0000 C   0  0  0  0  0  0  0  0  0  0  0  0
  1  2  1  0
  2  3  2  0
  3  4  1  0
  4  5  2  0
  5  6  1  0
  6  7  1  0
  7  8  2  0
  7  9  1  0
  9 10  2  0
 10 11  1  0
 11 12  2  0
 12 13  1  0
 13 14  1  0
 14 15  1  0
 15 16  1  0
 16 17  2  0
 13 18  1  0
 18 19  1  0
 19 20  1  0
 20 21  1  0
 21 22  1  0
 22 23  1  0
 21 24  1  0
 24 25  2  0
 24 26  1  0
 26 27  1  0
 27 28  1  0
 27 29  1  0
 27 30  1  0
  5 31  1  0
 31 32  2  0
 32 33  1  0
 33 34  1  0
 34 35  2  0
 35 36  1  0
 36 37  2  0
 37 38  1  0
 38 39  2  0
 38 40  1  0
 40 41  2  0
 41 42  1  0
 42 43  2  0
 43 44  1  0
 44 45  2  0
 32  2  1  0
 17  9  1  0
 16 12  1  0
 23 18  1  0
 39 34  1  0
 45 40  1  0
M  END
>  <pIC50>  (705) 
5.69

>  <ChEMBL_ID>  (705) 
CHEMBL3690073

>  <document_journal>  (705) 
None

>  <bao_endpoint>  (705) 
BAO_0000190

>  <potential_duplicate>  (705) 
None

>  <uo_units>  (705) 
UO_0000065

>  <canonical_smiles>  (705) 
Cc1ccc(NC(=O)c2ccc3C(CCc3c2)N4CCN(CC4)C(=O)OC(C)(C)C)cc1Nc5nccc(n5)c6cccnc6

>  <parent_molecule_chembl_id>  (705) 
CHEMBL3690073

>  <assay_type>  (705) 
B

>  <src_id>  (705) 
37

>  <ligand_efficiency>  (705) 
{u'le': u'0.17', u'bei': u'9.39', u'sei': u'5.05', u'lle': u'0.08'}

>  <standard_flag>  (705) 
True

>  <molecule_chembl_id>  (705) 
CHEMBL3690073

>  <target_organism>  (705) 
Homo sapiens

>  <standard_units>  (705) 
nM

>  <record_id>  (705) 
2566575

>  <document_chembl_id>  (705) 
CHEMBL3639364

>  <bao_format>  (705) 
BAO_0000357

>  <data_validity_description>  (705) 
None

>  <activity_id>  (705) 
16287625

>  <standard_type>  (705) 
IC50

>  <target_chembl_id>  (705) 
CHEMBL1862

>  <data_validity_comment>  (705) 
None

>  <published_value>  (705) 
2044

>  <document_year>  (705) 
2014

>  <target_pref_name>  (705) 
Tyrosine-protein kinase ABL

>  <assay_chembl_id>  (705) 
CHEMBL3705219

>  <standard_relation>  (705) 
=

>  <assay_description>  (705) 
BindingDB_Patents: Enzyme Assay. The activity of the compounds of this invention on Abl, c-Kit and PDGFR kinases was tested by Mobility Shift Assay (MSA). Kinase buffer: 62.5 mM HEPES, pH 7.5; 0.001875% Brij-35; 12.5 mM MgCl2; 2.5 mM DTT. Stop buffer: 100 mM HEPES, pH 7.5; 0.015% Brij-35; 0.2% coating agent 3; 50 mM EDTA. Preparation of kinase solution: Kinase solution was obtained by dissolving kinases in the kinase buffer mentioned above. With regard to c-Kit kinase, the pre-activation treatments should be carried out as follows. 700 nM c-Kit, 2 mM ATP, 4 mM DTT and 10 mM MgCl2 were dissolved in kinase buffer. After being incubated at 28° C. for 15 minutes, the solution was added to the kinase buffer.

>  <published_relation>  (705) 
=

>  <standard_value>  (705) 
2044

>  <qudt_units>  (705) 
http://www.openphacts.org/units/Nanomolar

>  <target_tax_id>  (705) 
9606

>  <bao_label>  (705) 
single protein format

>  <published_units>  (705) 
nM

>  <pchembl_value>  (705) 
5.69

>  <published_type>  (705) 
IC50

>  <activity_comment>  (705) 
248414

$$$$

     RDKit          

 41 46  0  0  0  0  0  0  0  0999 V2000
    0.0000    0.0000    0.0000 C   0  0  0  0  0  0  0  0  0  0  0  0
    0.0000    0.0000    0.0000 C   0  0  0  0  0  0  0  0  0  0  0  0
    0.0000    0.0000    0.0000 C   0  0  0  0  0  0  0  0  0  0  0  0
    0.0000    0.0000    0.0000 N   0  0  0  0  0  0  0  0  0  0  0  0
    0.0000    0.0000    0.0000 C   0  0  0  0  0  0  0  0  0  0  0  0
    0.0000    0.0000    0.0000 C   0  0  0  0  0  0  0  0  0  0  0  0
    0.0000    0.0000    0.0000 N   0  0  0  0  0  0  0  0  0  0  0  0
    0.0000    0.0000    0.0000 C   0  0  0  0  0  0  0  0  0  0  0  0
    0.0000    0.0000    0.0000 C   0  0  0  0  0  0  0  0  0  0  0  0
    0.0000    0.0000    0.0000 C   0  0  0  0  0  0  0  0  0  0  0  0
    0.0000    0.0000    0.0000 C   0  0  0  0  0  0  0  0  0  0  0  0
    0.0000    0.0000    0.0000 C   0  0  0  0  0  0  0  0  0  0  0  0
    0.0000    0.0000    0.0000 C   0  0  0  0  0  0  0  0  0  0  0  0
    0.0000    0.0000    0.0000 C   0  0  0  0  0  0  0  0  0  0  0  0
    0.0000    0.0000    0.0000 C   0  0  0  0  0  0  0  0  0  0  0  0
    0.0000    0.0000    0.0000 C   0  0  0  0  0  0  0  0  0  0  0  0
    0.0000    0.0000    0.0000 C   0  0  0  0  0  0  0  0  0  0  0  0
    0.0000    0.0000    0.0000 C   0  0  0  0  0  0  0  0  0  0  0  0
    0.0000    0.0000    0.0000 C   0  0  0  0  0  0  0  0  0  0  0  0
    0.0000    0.0000    0.0000 O   0  0  0  0  0  0  0  0  0  0  0  0
    0.0000    0.0000    0.0000 N   0  0  0  0  0  0  0  0  0  0  0  0
    0.0000    0.0000    0.0000 C   0  0  0  0  0  0  0  0  0  0  0  0
    0.0000    0.0000    0.0000 C   0  0  0  0  0  0  0  0  0  0  0  0
    0.0000    0.0000    0.0000 C   0  0  0  0  0  0  0  0  0  0  0  0
    0.0000    0.0000    0.0000 C   0  0  0  0  0  0  0  0  0  0  0  0
    0.0000    0.0000    0.0000 C   0  0  0  0  0  0  0  0  0  0  0  0
    0.0000    0.0000    0.0000 C   0  0  0  0  0  0  0  0  0  0  0  0
    0.0000    0.0000    0.0000 N   0  0  0  0  0  0  0  0  0  0  0  0
    0.0000    0.0000    0.0000 C   0  0  0  0  0  0  0  0  0  0  0  0
    0.0000    0.0000    0.0000 N   0  0  0  0  0  0  0  0  0  0  0  0
    0.0000    0.0000    0.0000 C   0  0  0  0  0  0  0  0  0  0  0  0
    0.0000    0.0000    0.0000 C   0  0  0  0  0  0  0  0  0  0  0  0
    0.0000    0.0000    0.0000 C   0  0  0  0  0  0  0  0  0  0  0  0
    0.0000    0.0000    0.0000 N   0  0  0  0  0  0  0  0  0  0  0  0
    0.0000    0.0000    0.0000 C   0  0  0  0  0  0  0  0  0  0  0  0
    0.0000    0.0000    0.0000 C   0  0  0  0  0  0  0  0  0  0  0  0
    0.0000    0.0000    0.0000 C   0  0  0  0  0  0  0  0  0  0  0  0
    0.0000    0.0000    0.0000 C   0  0  0  0  0  0  0  0  0  0  0  0
    0.0000    0.0000    0.0000 N   0  0  0  0  0  0  0  0  0  0  0  0
    0.0000    0.0000    0.0000 C   0  0  0  0  0  0  0  0  0  0  0  0
    0.0000    0.0000    0.0000 C   0  0  0  0  0  0  0  0  0  0  0  0
  1  2  1  0
  2  3  1  0
  2  4  1  0
  4  5  1  0
  5  6  1  0
  6  7  1  0
  7  8  1  0
  8  9  1  0
  7 10  1  0
 10 11  1  0
 11 12  1  0
 12 13  1  0
 13 14  2  0
 14 15  1  0
 15 16  2  0
 16 17  1  0
 17 18  2  0
 15 19  1  0
 19 20  2  0
 19 21  1  0
 21 22  1  0
 22 23  2  0
 23 24  1  0
 24 25  2  0
 25 26  1  0
 25 27  1  0
 27 28  1  0
 28 29  1  0
 29 30  2  0
 30 31  1  0
 31 32  2  0
 32 33  1  0
 33 34  2  0
 33 35  1  0
 35 36  2  0
 36 37  1  0
 37 38  2  0
 38 39  1  0
 39 40  2  0
 27 41  2  0
  9  4  1  0
 18 10  1  0
 18 13  1  0
 41 22  1  0
 34 29  1  0
 40 35  1  0
M  END
>  <pIC50>  (706) 
8.27

>  <ChEMBL_ID>  (706) 
CHEMBL3690076

>  <document_journal>  (706) 
None

>  <bao_endpoint>  (706) 
BAO_0000190

>  <potential_duplicate>  (706) 
None

>  <uo_units>  (706) 
UO_0000065

>  <canonical_smiles>  (706) 
CC(C)N1CCN(CC1)C2CCc3cc(ccc23)C(=O)Nc4ccc(C)c(Nc5nccc(n5)c6cccnc6)c4

>  <parent_molecule_chembl_id>  (706) 
CHEMBL3690076

>  <assay_type>  (706) 
B

>  <src_id>  (706) 
37

>  <ligand_efficiency>  (706) 
{u'le': u'0.28', u'bei': u'15.1', u'sei': u'9.58', u'lle': u'2.76'}

>  <standard_flag>  (706) 
True

>  <molecule_chembl_id>  (706) 
CHEMBL3690076

>  <target_organism>  (706) 
Homo sapiens

>  <standard_units>  (706) 
nM

>  <record_id>  (706) 
2566578

>  <document_chembl_id>  (706) 
CHEMBL3639364

>  <bao_format>  (706) 
BAO_0000357

>  <data_validity_description>  (706) 
None

>  <activity_id>  (706) 
16296318

>  <standard_type>  (706) 
IC50

>  <target_chembl_id>  (706) 
CHEMBL1862

>  <data_validity_comment>  (706) 
None

>  <published_value>  (706) 
5.4

>  <document_year>  (706) 
2014

>  <target_pref_name>  (706) 
Tyrosine-protein kinase ABL

>  <assay_chembl_id>  (706) 
CHEMBL3705219

>  <standard_relation>  (706) 
=

>  <assay_description>  (706) 
BindingDB_Patents: Enzyme Assay. The activity of the compounds of this invention on Abl, c-Kit and PDGFR kinases was tested by Mobility Shift Assay (MSA). Kinase buffer: 62.5 mM HEPES, pH 7.5; 0.001875% Brij-35; 12.5 mM MgCl2; 2.5 mM DTT. Stop buffer: 100 mM HEPES, pH 7.5; 0.015% Brij-35; 0.2% coating agent 3; 50 mM EDTA. Preparation of kinase solution: Kinase solution was obtained by dissolving kinases in the kinase buffer mentioned above. With regard to c-Kit kinase, the pre-activation treatments should be carried out as follows. 700 nM c-Kit, 2 mM ATP, 4 mM DTT and 10 mM MgCl2 were dissolved in kinase buffer. After being incubated at 28° C. for 15 minutes, the solution was added to the kinase buffer.

>  <published_relation>  (706) 
=

>  <standard_value>  (706) 
5.4

>  <qudt_units>  (706) 
http://www.openphacts.org/units/Nanomolar

>  <target_tax_id>  (706) 
9606

>  <bao_label>  (706) 
single protein format

>  <published_units>  (706) 
nM

>  <pchembl_value>  (706) 
8.27

>  <published_type>  (706) 
IC50

>  <activity_comment>  (706) 
248417

$$$$

     RDKit          

 40 45  0  0  0  0  0  0  0  0999 V2000
    0.0000    0.0000    0.0000 C   0  0  0  0  0  0  0  0  0  0  0  0
    0.0000    0.0000    0.0000 C   0  0  0  0  0  0  0  0  0  0  0  0
    0.0000    0.0000    0.0000 N   0  0  0  0  0  0  0  0  0  0  0  0
    0.0000    0.0000    0.0000 C   0  0  0  0  0  0  0  0  0  0  0  0
    0.0000    0.0000    0.0000 C   0  0  0  0  0  0  0  0  0  0  0  0
    0.0000    0.0000    0.0000 N   0  0  0  0  0  0  0  0  0  0  0  0
    0.0000    0.0000    0.0000 C   0  0  0  0  0  0  0  0  0  0  0  0
    0.0000    0.0000    0.0000 C   0  0  0  0  0  0  0  0  0  0  0  0
    0.0000    0.0000    0.0000 C   0  0  0  0  0  0  0  0  0  0  0  0
    0.0000    0.0000    0.0000 C   0  0  0  0  0  0  0  0  0  0  0  0
    0.0000    0.0000    0.0000 C   0  0  0  0  0  0  0  0  0  0  0  0
    0.0000    0.0000    0.0000 C   0  0  0  0  0  0  0  0  0  0  0  0
    0.0000    0.0000    0.0000 C   0  0  0  0  0  0  0  0  0  0  0  0
    0.0000    0.0000    0.0000 C   0  0  0  0  0  0  0  0  0  0  0  0
    0.0000    0.0000    0.0000 C   0  0  0  0  0  0  0  0  0  0  0  0
    0.0000    0.0000    0.0000 C   0  0  0  0  0  0  0  0  0  0  0  0
    0.0000    0.0000    0.0000 C   0  0  0  0  0  0  0  0  0  0  0  0
    0.0000    0.0000    0.0000 C   0  0  0  0  0  0  0  0  0  0  0  0
    0.0000    0.0000    0.0000 O   0  0  0  0  0  0  0  0  0  0  0  0
    0.0000    0.0000    0.0000 N   0  0  0  0  0  0  0  0  0  0  0  0
    0.0000    0.0000    0.0000 C   0  0  0  0  0  0  0  0  0  0  0  0
    0.0000    0.0000    0.0000 C   0  0  0  0  0  0  0  0  0  0  0  0
    0.0000    0.0000    0.0000 C   0  0  0  0  0  0  0  0  0  0  0  0
    0.0000    0.0000    0.0000 C   0  0  0  0  0  0  0  0  0  0  0  0
    0.0000    0.0000    0.0000 C   0  0  0  0  0  0  0  0  0  0  0  0
    0.0000    0.0000    0.0000 C   0  0  0  0  0  0  0  0  0  0  0  0
    0.0000    0.0000    0.0000 N   0  0  0  0  0  0  0  0  0  0  0  0
    0.0000    0.0000    0.0000 C   0  0  0  0  0  0  0  0  0  0  0  0
    0.0000    0.0000    0.0000 N   0  0  0  0  0  0  0  0  0  0  0  0
    0.0000    0.0000    0.0000 C   0  0  0  0  0  0  0  0  0  0  0  0
    0.0000    0.0000    0.0000 C   0  0  0  0  0  0  0  0  0  0  0  0
    0.0000    0.0000    0.0000 C   0  0  0  0  0  0  0  0  0  0  0  0
    0.0000    0.0000    0.0000 N   0  0  0  0  0  0  0  0  0  0  0  0
    0.0000    0.0000    0.0000 C   0  0  0  0  0  0  0  0  0  0  0  0
    0.0000    0.0000    0.0000 C   0  0  0  0  0  0  0  0  0  0  0  0
    0.0000    0.0000    0.0000 C   0  0  0  0  0  0  0  0  0  0  0  0
    0.0000    0.0000    0.0000 C   0  0  0  0  0  0  0  0  0  0  0  0
    0.0000    0.0000    0.0000 N   0  0  0  0  0  0  0  0  0  0  0  0
    0.0000    0.0000    0.0000 C   0  0  0  0  0  0  0  0  0  0  0  0
    0.0000    0.0000    0.0000 C   0  0  0  0  0  0  0  0  0  0  0  0
  1  2  1  0
  2  3  1  0
  3  4  1  0
  4  5  1  0
  5  6  1  0
  6  7  1  0
  7  8  1  0
  6  9  1  0
  9 10  1  0
 10 11  1  0
 11 12  1  0
 12 13  2  0
 13 14  1  0
 14 15  2  0
 15 16  1  0
 16 17  2  0
 14 18  1  0
 18 19  2  0
 18 20  1  0
 20 21  1  0
 21 22  2  0
 22 23  1  0
 23 24  2  0
 24 25  1  0
 24 26  1  0
 26 27  1  0
 27 28  1  0
 28 29  2  0
 29 30  1  0
 30 31  2  0
 31 32  1  0
 32 33  2  0
 32 34  1  0
 34 35  2  0
 35 36  1  0
 36 37  2  0
 37 38  1  0
 38 39  2  0
 26 40  2  0
  8  3  1  0
 17  9  1  0
 17 12  1  0
 40 21  1  0
 33 28  1  0
 39 34  1  0
M  END
>  <pIC50>  (707) 
8.2

>  <ChEMBL_ID>  (707) 
CHEMBL3690075

>  <document_journal>  (707) 
None

>  <bao_endpoint>  (707) 
BAO_0000190

>  <potential_duplicate>  (707) 
None

>  <uo_units>  (707) 
UO_0000065

>  <canonical_smiles>  (707) 
CCN1CCN(CC1)C2CCc3cc(ccc23)C(=O)Nc4ccc(C)c(Nc5nccc(n5)c6cccnc6)c4

>  <parent_molecule_chembl_id>  (707) 
CHEMBL3690075

>  <assay_type>  (707) 
B

>  <src_id>  (707) 
37

>  <ligand_efficiency>  (707) 
{u'le': u'0.28', u'bei': u'15.37', u'sei': u'9.5', u'lle': u'3.07'}

>  <standard_flag>  (707) 
True

>  <molecule_chembl_id>  (707) 
CHEMBL3690075

>  <target_organism>  (707) 
Homo sapiens

>  <standard_units>  (707) 
nM

>  <record_id>  (707) 
2566577

>  <document_chembl_id>  (707) 
CHEMBL3639364

>  <bao_format>  (707) 
BAO_0000357

>  <data_validity_description>  (707) 
None

>  <activity_id>  (707) 
16307452

>  <standard_type>  (707) 
IC50

>  <target_chembl_id>  (707) 
CHEMBL1862

>  <data_validity_comment>  (707) 
None

>  <published_value>  (707) 
6.3

>  <document_year>  (707) 
2014

>  <target_pref_name>  (707) 
Tyrosine-protein kinase ABL

>  <assay_chembl_id>  (707) 
CHEMBL3705219

>  <standard_relation>  (707) 
=

>  <assay_description>  (707) 
BindingDB_Patents: Enzyme Assay. The activity of the compounds of this invention on Abl, c-Kit and PDGFR kinases was tested by Mobility Shift Assay (MSA). Kinase buffer: 62.5 mM HEPES, pH 7.5; 0.001875% Brij-35; 12.5 mM MgCl2; 2.5 mM DTT. Stop buffer: 100 mM HEPES, pH 7.5; 0.015% Brij-35; 0.2% coating agent 3; 50 mM EDTA. Preparation of kinase solution: Kinase solution was obtained by dissolving kinases in the kinase buffer mentioned above. With regard to c-Kit kinase, the pre-activation treatments should be carried out as follows. 700 nM c-Kit, 2 mM ATP, 4 mM DTT and 10 mM MgCl2 were dissolved in kinase buffer. After being incubated at 28° C. for 15 minutes, the solution was added to the kinase buffer.

>  <published_relation>  (707) 
=

>  <standard_value>  (707) 
6.3

>  <qudt_units>  (707) 
http://www.openphacts.org/units/Nanomolar

>  <target_tax_id>  (707) 
9606

>  <bao_label>  (707) 
single protein format

>  <published_units>  (707) 
nM

>  <pchembl_value>  (707) 
8.2

>  <published_type>  (707) 
IC50

>  <activity_comment>  (707) 
248416

$$$$

     RDKit          

 39 44  0  0  0  0  0  0  0  0999 V2000
    0.0000    0.0000    0.0000 C   0  0  0  0  0  0  0  0  0  0  0  0
    0.0000    0.0000    0.0000 N   0  0  0  0  0  0  0  0  0  0  0  0
    0.0000    0.0000    0.0000 C   0  0  0  0  0  0  0  0  0  0  0  0
    0.0000    0.0000    0.0000 C   0  0  0  0  0  0  0  0  0  0  0  0
    0.0000    0.0000    0.0000 N   0  0  0  0  0  0  0  0  0  0  0  0
    0.0000    0.0000    0.0000 C   0  0  0  0  0  0  0  0  0  0  0  0
    0.0000    0.0000    0.0000 C   0  0  0  0  0  0  0  0  0  0  0  0
    0.0000    0.0000    0.0000 C   0  0  0  0  0  0  0  0  0  0  0  0
    0.0000    0.0000    0.0000 C   0  0  0  0  0  0  0  0  0  0  0  0
    0.0000    0.0000    0.0000 C   0  0  0  0  0  0  0  0  0  0  0  0
    0.0000    0.0000    0.0000 C   0  0  0  0  0  0  0  0  0  0  0  0
    0.0000    0.0000    0.0000 C   0  0  0  0  0  0  0  0  0  0  0  0
    0.0000    0.0000    0.0000 C   0  0  0  0  0  0  0  0  0  0  0  0
    0.0000    0.0000    0.0000 C   0  0  0  0  0  0  0  0  0  0  0  0
    0.0000    0.0000    0.0000 C   0  0  0  0  0  0  0  0  0  0  0  0
    0.0000    0.0000    0.0000 C   0  0  0  0  0  0  0  0  0  0  0  0
    0.0000    0.0000    0.0000 C   0  0  0  0  0  0  0  0  0  0  0  0
    0.0000    0.0000    0.0000 O   0  0  0  0  0  0  0  0  0  0  0  0
    0.0000    0.0000    0.0000 N   0  0  0  0  0  0  0  0  0  0  0  0
    0.0000    0.0000    0.0000 C   0  0  0  0  0  0  0  0  0  0  0  0
    0.0000    0.0000    0.0000 C   0  0  0  0  0  0  0  0  0  0  0  0
    0.0000    0.0000    0.0000 C   0  0  0  0  0  0  0  0  0  0  0  0
    0.0000    0.0000    0.0000 C   0  0  0  0  0  0  0  0  0  0  0  0
    0.0000    0.0000    0.0000 C   0  0  0  0  0  0  0  0  0  0  0  0
    0.0000    0.0000    0.0000 C   0  0  0  0  0  0  0  0  0  0  0  0
    0.0000    0.0000    0.0000 N   0  0  0  0  0  0  0  0  0  0  0  0
    0.0000    0.0000    0.0000 C   0  0  0  0  0  0  0  0  0  0  0  0
    0.0000    0.0000    0.0000 N   0  0  0  0  0  0  0  0  0  0  0  0
    0.0000    0.0000    0.0000 C   0  0  0  0  0  0  0  0  0  0  0  0
    0.0000    0.0000    0.0000 C   0  0  0  0  0  0  0  0  0  0  0  0
    0.0000    0.0000    0.0000 C   0  0  0  0  0  0  0  0  0  0  0  0
    0.0000    0.0000    0.0000 N   0  0  0  0  0  0  0  0  0  0  0  0
    0.0000    0.0000    0.0000 C   0  0  0  0  0  0  0  0  0  0  0  0
    0.0000    0.0000    0.0000 C   0  0  0  0  0  0  0  0  0  0  0  0
    0.0000    0.0000    0.0000 C   0  0  0  0  0  0  0  0  0  0  0  0
    0.0000    0.0000    0.0000 C   0  0  0  0  0  0  0  0  0  0  0  0
    0.0000    0.0000    0.0000 N   0  0  0  0  0  0  0  0  0  0  0  0
    0.0000    0.0000    0.0000 C   0  0  0  0  0  0  0  0  0  0  0  0
    0.0000    0.0000    0.0000 C   0  0  0  0  0  0  0  0  0  0  0  0
  1  2  1  0
  2  3  1  0
  3  4  1  0
  4  5  1  0
  5  6  1  0
  6  7  1  0
  5  8  1  0
  8  9  1  0
  9 10  1  0
 10 11  1  0
 11 12  2  0
 12 13  1  0
 13 14  2  0
 14 15  1  0
 15 16  2  0
 13 17  1  0
 17 18  2  0
 17 19  1  0
 19 20  1  0
 20 21  2  0
 21 22  1  0
 22 23  2  0
 23 24  1  0
 23 25  1  0
 25 26  1  0
 26 27  1  0
 27 28  2  0
 28 29  1  0
 29 30  2  0
 30 31  1  0
 31 32  2  0
 31 33  1  0
 33 34  2  0
 34 35  1  0
 35 36  2  0
 36 37  1  0
 37 38  2  0
 25 39  2  0
  7  2  1  0
 16  8  1  0
 16 11  1  0
 39 20  1  0
 32 27  1  0
 38 33  1  0
M  END
>  <pIC50>  (708) 
8.66

>  <ChEMBL_ID>  (708) 
CHEMBL3690082

>  <document_journal>  (708) 
None

>  <bao_endpoint>  (708) 
BAO_0000190

>  <potential_duplicate>  (708) 
None

>  <uo_units>  (708) 
UO_0000065

>  <canonical_smiles>  (708) 
CN1CCN(CC1)[C@H]2CCc3cc(ccc23)C(=O)Nc4ccc(C)c(Nc5nccc(n5)c6cccnc6)c4

>  <parent_molecule_chembl_id>  (708) 
CHEMBL3690082

>  <assay_type>  (708) 
B

>  <src_id>  (708) 
37

>  <ligand_efficiency>  (708) 
{u'le': u'0.3', u'bei': u'16.66', u'sei': u'10.03', u'lle': u'3.88'}

>  <standard_flag>  (708) 
True

>  <molecule_chembl_id>  (708) 
CHEMBL3690082

>  <target_organism>  (708) 
Homo sapiens

>  <standard_units>  (708) 
nM

>  <record_id>  (708) 
2566584

>  <document_chembl_id>  (708) 
CHEMBL3639364

>  <bao_format>  (708) 
BAO_0000357

>  <data_validity_description>  (708) 
None

>  <activity_id>  (708) 
16310671

>  <standard_type>  (708) 
IC50

>  <target_chembl_id>  (708) 
CHEMBL1862

>  <data_validity_comment>  (708) 
None

>  <published_value>  (708) 
2.2

>  <document_year>  (708) 
2014

>  <target_pref_name>  (708) 
Tyrosine-protein kinase ABL

>  <assay_chembl_id>  (708) 
CHEMBL3705219

>  <standard_relation>  (708) 
=

>  <assay_description>  (708) 
BindingDB_Patents: Enzyme Assay. The activity of the compounds of this invention on Abl, c-Kit and PDGFR kinases was tested by Mobility Shift Assay (MSA). Kinase buffer: 62.5 mM HEPES, pH 7.5; 0.001875% Brij-35; 12.5 mM MgCl2; 2.5 mM DTT. Stop buffer: 100 mM HEPES, pH 7.5; 0.015% Brij-35; 0.2% coating agent 3; 50 mM EDTA. Preparation of kinase solution: Kinase solution was obtained by dissolving kinases in the kinase buffer mentioned above. With regard to c-Kit kinase, the pre-activation treatments should be carried out as follows. 700 nM c-Kit, 2 mM ATP, 4 mM DTT and 10 mM MgCl2 were dissolved in kinase buffer. After being incubated at 28° C. for 15 minutes, the solution was added to the kinase buffer.

>  <published_relation>  (708) 
=

>  <standard_value>  (708) 
2.2

>  <qudt_units>  (708) 
http://www.openphacts.org/units/Nanomolar

>  <target_tax_id>  (708) 
9606

>  <bao_label>  (708) 
single protein format

>  <published_units>  (708) 
nM

>  <pchembl_value>  (708) 
8.66

>  <published_type>  (708) 
IC50

>  <activity_comment>  (708) 
248423

$$$$

     RDKit          

 39 44  0  0  0  0  0  0  0  0999 V2000
    0.0000    0.0000    0.0000 C   0  0  0  0  0  0  0  0  0  0  0  0
    0.0000    0.0000    0.0000 N   0  0  0  0  0  0  0  0  0  0  0  0
    0.0000    0.0000    0.0000 C   0  0  0  0  0  0  0  0  0  0  0  0
    0.0000    0.0000    0.0000 C   0  0  0  0  0  0  0  0  0  0  0  0
    0.0000    0.0000    0.0000 N   0  0  0  0  0  0  0  0  0  0  0  0
    0.0000    0.0000    0.0000 C   0  0  0  0  0  0  0  0  0  0  0  0
    0.0000    0.0000    0.0000 C   0  0  0  0  0  0  0  0  0  0  0  0
    0.0000    0.0000    0.0000 C   0  0  0  0  0  0  0  0  0  0  0  0
    0.0000    0.0000    0.0000 C   0  0  0  0  0  0  0  0  0  0  0  0
    0.0000    0.0000    0.0000 C   0  0  0  0  0  0  0  0  0  0  0  0
    0.0000    0.0000    0.0000 C   0  0  0  0  0  0  0  0  0  0  0  0
    0.0000    0.0000    0.0000 C   0  0  0  0  0  0  0  0  0  0  0  0
    0.0000    0.0000    0.0000 C   0  0  0  0  0  0  0  0  0  0  0  0
    0.0000    0.0000    0.0000 C   0  0  0  0  0  0  0  0  0  0  0  0
    0.0000    0.0000    0.0000 C   0  0  0  0  0  0  0  0  0  0  0  0
    0.0000    0.0000    0.0000 C   0  0  0  0  0  0  0  0  0  0  0  0
    0.0000    0.0000    0.0000 C   0  0  0  0  0  0  0  0  0  0  0  0
    0.0000    0.0000    0.0000 O   0  0  0  0  0  0  0  0  0  0  0  0
    0.0000    0.0000    0.0000 N   0  0  0  0  0  0  0  0  0  0  0  0
    0.0000    0.0000    0.0000 C   0  0  0  0  0  0  0  0  0  0  0  0
    0.0000    0.0000    0.0000 C   0  0  0  0  0  0  0  0  0  0  0  0
    0.0000    0.0000    0.0000 C   0  0  0  0  0  0  0  0  0  0  0  0
    0.0000    0.0000    0.0000 C   0  0  0  0  0  0  0  0  0  0  0  0
    0.0000    0.0000    0.0000 C   0  0  0  0  0  0  0  0  0  0  0  0
    0.0000    0.0000    0.0000 C   0  0  0  0  0  0  0  0  0  0  0  0
    0.0000    0.0000    0.0000 N   0  0  0  0  0  0  0  0  0  0  0  0
    0.0000    0.0000    0.0000 C   0  0  0  0  0  0  0  0  0  0  0  0
    0.0000    0.0000    0.0000 N   0  0  0  0  0  0  0  0  0  0  0  0
    0.0000    0.0000    0.0000 C   0  0  0  0  0  0  0  0  0  0  0  0
    0.0000    0.0000    0.0000 C   0  0  0  0  0  0  0  0  0  0  0  0
    0.0000    0.0000    0.0000 C   0  0  0  0  0  0  0  0  0  0  0  0
    0.0000    0.0000    0.0000 N   0  0  0  0  0  0  0  0  0  0  0  0
    0.0000    0.0000    0.0000 C   0  0  0  0  0  0  0  0  0  0  0  0
    0.0000    0.0000    0.0000 C   0  0  0  0  0  0  0  0  0  0  0  0
    0.0000    0.0000    0.0000 C   0  0  0  0  0  0  0  0  0  0  0  0
    0.0000    0.0000    0.0000 C   0  0  0  0  0  0  0  0  0  0  0  0
    0.0000    0.0000    0.0000 N   0  0  0  0  0  0  0  0  0  0  0  0
    0.0000    0.0000    0.0000 C   0  0  0  0  0  0  0  0  0  0  0  0
    0.0000    0.0000    0.0000 C   0  0  0  0  0  0  0  0  0  0  0  0
  1  2  1  0
  2  3  1  0
  3  4  1  0
  4  5  1  0
  5  6  1  0
  6  7  1  0
  5  8  1  0
  8  9  1  0
  9 10  1  0
 10 11  1  0
 11 12  2  0
 12 13  1  0
 13 14  2  0
 14 15  1  0
 15 16  2  0
 13 17  1  0
 17 18  2  0
 17 19  1  0
 19 20  1  0
 20 21  2  0
 21 22  1  0
 22 23  2  0
 23 24  1  0
 23 25  1  0
 25 26  1  0
 26 27  1  0
 27 28  2  0
 28 29  1  0
 29 30  2  0
 30 31  1  0
 31 32  2  0
 31 33  1  0
 33 34  2  0
 34 35  1  0
 35 36  2  0
 36 37  1  0
 37 38  2  0
 25 39  2  0
  7  2  1  0
 16  8  1  0
 16 11  1  0
 39 20  1  0
 32 27  1  0
 38 33  1  0
M  END
>  <pIC50>  (709) 
7.415

>  <ChEMBL_ID>  (709) 
CHEMBL3690072

>  <document_journal>  (709) 
None

>  <bao_endpoint>  (709) 
BAO_0000190

>  <potential_duplicate>  (709) 
None

>  <uo_units>  (709) 
UO_0000065

>  <canonical_smiles>  (709) 
CN1CCN(CC1)C2CCc3cc(ccc23)C(=O)Nc4ccc(C)c(Nc5nccc(n5)c6cccnc6)c4

>  <parent_molecule_chembl_id>  (709) 
CHEMBL3690072

>  <assay_type>  (709) 
B

>  <src_id>  (709) 
37

>  <ligand_efficiency>  (709) 
{u'le': u'0.29', u'bei': u'15.85', u'sei': u'9.55', u'lle': u'3.46'}

>  <standard_flag>  (709) 
True

>  <molecule_chembl_id>  (709) 
CHEMBL3690072

>  <target_organism>  (709) 
Homo sapiens

>  <standard_units>  (709) 
nM

>  <record_id>  (709) 
2566574

>  <document_chembl_id>  (709) 
CHEMBL3639364

>  <bao_format>  (709) 
BAO_0000357

>  <data_validity_description>  (709) 
None

>  <activity_id>  (709) 
16310968

>  <standard_type>  (709) 
IC50

>  <target_chembl_id>  (709) 
CHEMBL1862

>  <data_validity_comment>  (709) 
None

>  <published_value>  (709) 
5.8

>  <document_year>  (709) 
2014

>  <target_pref_name>  (709) 
Tyrosine-protein kinase ABL

>  <assay_chembl_id>  (709) 
CHEMBL3705219

>  <standard_relation>  (709) 
=

>  <assay_description>  (709) 
BindingDB_Patents: Enzyme Assay. The activity of the compounds of this invention on Abl, c-Kit and PDGFR kinases was tested by Mobility Shift Assay (MSA). Kinase buffer: 62.5 mM HEPES, pH 7.5; 0.001875% Brij-35; 12.5 mM MgCl2; 2.5 mM DTT. Stop buffer: 100 mM HEPES, pH 7.5; 0.015% Brij-35; 0.2% coating agent 3; 50 mM EDTA. Preparation of kinase solution: Kinase solution was obtained by dissolving kinases in the kinase buffer mentioned above. With regard to c-Kit kinase, the pre-activation treatments should be carried out as follows. 700 nM c-Kit, 2 mM ATP, 4 mM DTT and 10 mM MgCl2 were dissolved in kinase buffer. After being incubated at 28° C. for 15 minutes, the solution was added to the kinase buffer.

>  <published_relation>  (709) 
=

>  <standard_value>  (709) 
5.8

>  <qudt_units>  (709) 
http://www.openphacts.org/units/Nanomolar

>  <target_tax_id>  (709) 
9606

>  <bao_label>  (709) 
single protein format

>  <published_units>  (709) 
nM

>  <pchembl_value>  (709) 
8.24

>  <published_type>  (709) 
IC50

>  <activity_comment>  (709) 
248413

$$$$

     RDKit          

 41 46  0  0  0  0  0  0  0  0999 V2000
    0.0000    0.0000    0.0000 C   0  0  0  0  0  0  0  0  0  0  0  0
    0.0000    0.0000    0.0000 C   0  0  0  0  0  0  0  0  0  0  0  0
    0.0000    0.0000    0.0000 C   0  0  0  0  0  0  0  0  0  0  0  0
    0.0000    0.0000    0.0000 C   0  0  0  0  0  0  0  0  0  0  0  0
    0.0000    0.0000    0.0000 C   0  0  0  0  0  0  0  0  0  0  0  0
    0.0000    0.0000    0.0000 N   0  0  0  0  0  0  0  0  0  0  0  0
    0.0000    0.0000    0.0000 C   0  0  0  0  0  0  0  0  0  0  0  0
    0.0000    0.0000    0.0000 O   0  0  0  0  0  0  0  0  0  0  0  0
    0.0000    0.0000    0.0000 C   0  0  0  0  0  0  0  0  0  0  0  0
    0.0000    0.0000    0.0000 C   0  0  0  0  0  0  0  0  0  0  0  0
    0.0000    0.0000    0.0000 C   0  0  0  0  0  0  0  0  0  0  0  0
    0.0000    0.0000    0.0000 C   0  0  0  0  0  0  0  0  0  0  0  0
    0.0000    0.0000    0.0000 C   0  0  0  0  0  0  0  0  0  0  0  0
    0.0000    0.0000    0.0000 C   0  0  0  0  0  0  0  0  0  0  0  0
    0.0000    0.0000    0.0000 C   0  0  0  0  0  0  0  0  0  0  0  0
    0.0000    0.0000    0.0000 C   0  0  0  0  0  0  0  0  0  0  0  0
    0.0000    0.0000    0.0000 C   0  0  0  0  0  0  0  0  0  0  0  0
    0.0000    0.0000    0.0000 N   0  0  0  0  0  0  0  0  0  0  0  0
    0.0000    0.0000    0.0000 C   0  0  0  0  0  0  0  0  0  0  0  0
    0.0000    0.0000    0.0000 C   0  0  0  0  0  0  0  0  0  0  0  0
    0.0000    0.0000    0.0000 N   0  0  0  0  0  0  0  0  0  0  0  0
    0.0000    0.0000    0.0000 C   0  0  0  0  0  0  0  0  0  0  0  0
    0.0000    0.0000    0.0000 C   0  0  0  0  0  0  0  0  0  0  0  0
    0.0000    0.0000    0.0000 O   0  0  0  0  0  0  0  0  0  0  0  0
    0.0000    0.0000    0.0000 C   0  0  0  0  0  0  0  0  0  0  0  0
    0.0000    0.0000    0.0000 C   0  0  0  0  0  0  0  0  0  0  0  0
    0.0000    0.0000    0.0000 C   0  0  0  0  0  0  0  0  0  0  0  0
    0.0000    0.0000    0.0000 C   0  0  0  0  0  0  0  0  0  0  0  0
    0.0000    0.0000    0.0000 N   0  0  0  0  0  0  0  0  0  0  0  0
    0.0000    0.0000    0.0000 C   0  0  0  0  0  0  0  0  0  0  0  0
    0.0000    0.0000    0.0000 N   0  0  0  0  0  0  0  0  0  0  0  0
    0.0000    0.0000    0.0000 C   0  0  0  0  0  0  0  0  0  0  0  0
    0.0000    0.0000    0.0000 C   0  0  0  0  0  0  0  0  0  0  0  0
    0.0000    0.0000    0.0000 C   0  0  0  0  0  0  0  0  0  0  0  0
    0.0000    0.0000    0.0000 N   0  0  0  0  0  0  0  0  0  0  0  0
    0.0000    0.0000    0.0000 C   0  0  0  0  0  0  0  0  0  0  0  0
    0.0000    0.0000    0.0000 C   0  0  0  0  0  0  0  0  0  0  0  0
    0.0000    0.0000    0.0000 C   0  0  0  0  0  0  0  0  0  0  0  0
    0.0000    0.0000    0.0000 C   0  0  0  0  0  0  0  0  0  0  0  0
    0.0000    0.0000    0.0000 N   0  0  0  0  0  0  0  0  0  0  0  0
    0.0000    0.0000    0.0000 C   0  0  0  0  0  0  0  0  0  0  0  0
  1  2  1  0
  2  3  2  0
  3  4  1  0
  4  5  2  0
  5  6  1  0
  6  7  1  0
  7  8  2  0
  7  9  1  0
  9 10  2  0
 10 11  1  0
 11 12  2  0
 12 13  1  0
 13 14  1  0
 14 15  1  0
 15 16  1  0
 16 17  2  0
 13 18  1  0
 18 19  1  0
 19 20  1  0
 20 21  1  0
 21 22  1  0
 22 23  1  0
 23 24  1  0
 21 25  1  0
 25 26  1  0
  5 27  1  0
 27 28  2  0
 28 29  1  0
 29 30  1  0
 30 31  2  0
 31 32  1  0
 32 33  2  0
 33 34  1  0
 34 35  2  0
 34 36  1  0
 36 37  2  0
 37 38  1  0
 38 39  2  0
 39 40  1  0
 40 41  2  0
 28  2  1  0
 17  9  1  0
 16 12  1  0
 26 18  1  0
 35 30  1  0
 41 36  1  0
M  END
>  <pIC50>  (710) 
7.92

>  <ChEMBL_ID>  (710) 
CHEMBL3690077

>  <document_journal>  (710) 
None

>  <bao_endpoint>  (710) 
BAO_0000190

>  <potential_duplicate>  (710) 
None

>  <uo_units>  (710) 
UO_0000065

>  <canonical_smiles>  (710) 
Cc1ccc(NC(=O)c2ccc3C(CCc3c2)N4CCN(CCO)CC4)cc1Nc5nccc(n5)c6cccnc6

>  <parent_molecule_chembl_id>  (710) 
CHEMBL3690077

>  <assay_type>  (710) 
B

>  <src_id>  (710) 
37

>  <ligand_efficiency>  (710) 
{u'le': u'0.26', u'bei': u'14.41', u'sei': u'7.44', u'lle': u'3.68'}

>  <standard_flag>  (710) 
True

>  <molecule_chembl_id>  (710) 
CHEMBL3690077

>  <target_organism>  (710) 
Homo sapiens

>  <standard_units>  (710) 
nM

>  <record_id>  (710) 
2566579

>  <document_chembl_id>  (710) 
CHEMBL3639364

>  <bao_format>  (710) 
BAO_0000357

>  <data_validity_description>  (710) 
None

>  <activity_id>  (710) 
16311130

>  <standard_type>  (710) 
IC50

>  <target_chembl_id>  (710) 
CHEMBL1862

>  <data_validity_comment>  (710) 
None

>  <published_value>  (710) 
12

>  <document_year>  (710) 
2014

>  <target_pref_name>  (710) 
Tyrosine-protein kinase ABL

>  <assay_chembl_id>  (710) 
CHEMBL3705219

>  <standard_relation>  (710) 
=

>  <assay_description>  (710) 
BindingDB_Patents: Enzyme Assay. The activity of the compounds of this invention on Abl, c-Kit and PDGFR kinases was tested by Mobility Shift Assay (MSA). Kinase buffer: 62.5 mM HEPES, pH 7.5; 0.001875% Brij-35; 12.5 mM MgCl2; 2.5 mM DTT. Stop buffer: 100 mM HEPES, pH 7.5; 0.015% Brij-35; 0.2% coating agent 3; 50 mM EDTA. Preparation of kinase solution: Kinase solution was obtained by dissolving kinases in the kinase buffer mentioned above. With regard to c-Kit kinase, the pre-activation treatments should be carried out as follows. 700 nM c-Kit, 2 mM ATP, 4 mM DTT and 10 mM MgCl2 were dissolved in kinase buffer. After being incubated at 28° C. for 15 minutes, the solution was added to the kinase buffer.

>  <published_relation>  (710) 
=

>  <standard_value>  (710) 
12

>  <qudt_units>  (710) 
http://www.openphacts.org/units/Nanomolar

>  <target_tax_id>  (710) 
9606

>  <bao_label>  (710) 
single protein format

>  <published_units>  (710) 
nM

>  <pchembl_value>  (710) 
7.92

>  <published_type>  (710) 
IC50

>  <activity_comment>  (710) 
248418

$$$$

     RDKit          

 39 44  0  0  0  0  0  0  0  0999 V2000
    0.0000    0.0000    0.0000 C   0  0  0  0  0  0  0  0  0  0  0  0
    0.0000    0.0000    0.0000 N   0  0  0  0  0  0  0  0  0  0  0  0
    0.0000    0.0000    0.0000 C   0  0  0  0  0  0  0  0  0  0  0  0
    0.0000    0.0000    0.0000 C   0  0  0  0  0  0  0  0  0  0  0  0
    0.0000    0.0000    0.0000 N   0  0  0  0  0  0  0  0  0  0  0  0
    0.0000    0.0000    0.0000 C   0  0  0  0  0  0  0  0  0  0  0  0
    0.0000    0.0000    0.0000 C   0  0  0  0  0  0  0  0  0  0  0  0
    0.0000    0.0000    0.0000 C   0  0  0  0  0  0  0  0  0  0  0  0
    0.0000    0.0000    0.0000 C   0  0  0  0  0  0  0  0  0  0  0  0
    0.0000    0.0000    0.0000 C   0  0  0  0  0  0  0  0  0  0  0  0
    0.0000    0.0000    0.0000 C   0  0  0  0  0  0  0  0  0  0  0  0
    0.0000    0.0000    0.0000 C   0  0  0  0  0  0  0  0  0  0  0  0
    0.0000    0.0000    0.0000 C   0  0  0  0  0  0  0  0  0  0  0  0
    0.0000    0.0000    0.0000 C   0  0  0  0  0  0  0  0  0  0  0  0
    0.0000    0.0000    0.0000 C   0  0  0  0  0  0  0  0  0  0  0  0
    0.0000    0.0000    0.0000 C   0  0  0  0  0  0  0  0  0  0  0  0
    0.0000    0.0000    0.0000 C   0  0  0  0  0  0  0  0  0  0  0  0
    0.0000    0.0000    0.0000 O   0  0  0  0  0  0  0  0  0  0  0  0
    0.0000    0.0000    0.0000 N   0  0  0  0  0  0  0  0  0  0  0  0
    0.0000    0.0000    0.0000 C   0  0  0  0  0  0  0  0  0  0  0  0
    0.0000    0.0000    0.0000 C   0  0  0  0  0  0  0  0  0  0  0  0
    0.0000    0.0000    0.0000 C   0  0  0  0  0  0  0  0  0  0  0  0
    0.0000    0.0000    0.0000 C   0  0  0  0  0  0  0  0  0  0  0  0
    0.0000    0.0000    0.0000 C   0  0  0  0  0  0  0  0  0  0  0  0
    0.0000    0.0000    0.0000 C   0  0  0  0  0  0  0  0  0  0  0  0
    0.0000    0.0000    0.0000 N   0  0  0  0  0  0  0  0  0  0  0  0
    0.0000    0.0000    0.0000 C   0  0  0  0  0  0  0  0  0  0  0  0
    0.0000    0.0000    0.0000 N   0  0  0  0  0  0  0  0  0  0  0  0
    0.0000    0.0000    0.0000 C   0  0  0  0  0  0  0  0  0  0  0  0
    0.0000    0.0000    0.0000 C   0  0  0  0  0  0  0  0  0  0  0  0
    0.0000    0.0000    0.0000 C   0  0  0  0  0  0  0  0  0  0  0  0
    0.0000    0.0000    0.0000 N   0  0  0  0  0  0  0  0  0  0  0  0
    0.0000    0.0000    0.0000 C   0  0  0  0  0  0  0  0  0  0  0  0
    0.0000    0.0000    0.0000 C   0  0  0  0  0  0  0  0  0  0  0  0
    0.0000    0.0000    0.0000 C   0  0  0  0  0  0  0  0  0  0  0  0
    0.0000    0.0000    0.0000 N   0  0  0  0  0  0  0  0  0  0  0  0
    0.0000    0.0000    0.0000 C   0  0  0  0  0  0  0  0  0  0  0  0
    0.0000    0.0000    0.0000 C   0  0  0  0  0  0  0  0  0  0  0  0
    0.0000    0.0000    0.0000 C   0  0  0  0  0  0  0  0  0  0  0  0
  1  2  1  0
  2  3  1  0
  3  4  1  0
  4  5  1  0
  5  6  1  0
  6  7  1  0
  5  8  1  0
  8  9  1  0
  9 10  1  0
 10 11  1  0
 11 12  2  0
 12 13  1  0
 13 14  2  0
 14 15  1  0
 15 16  2  0
 13 17  1  0
 17 18  2  0
 17 19  1  0
 19 20  1  0
 20 21  2  0
 21 22  1  0
 22 23  2  0
 23 24  1  0
 23 25  1  0
 25 26  1  0
 26 27  1  0
 27 28  2  0
 28 29  1  0
 29 30  2  0
 30 31  1  0
 31 32  2  0
 31 33  1  0
 33 34  2  0
 34 35  1  0
 35 36  2  0
 36 37  1  0
 37 38  2  0
 25 39  2  0
  7  2  1  0
 16  8  1  0
 16 11  1  0
 39 20  1  0
 32 27  1  0
 38 33  1  0
M  END
>  <pIC50>  (711) 
7.64

>  <ChEMBL_ID>  (711) 
CHEMBL3690083

>  <document_journal>  (711) 
None

>  <bao_endpoint>  (711) 
BAO_0000190

>  <potential_duplicate>  (711) 
None

>  <uo_units>  (711) 
UO_0000065

>  <canonical_smiles>  (711) 
CN1CCN(CC1)C2CCc3cc(ccc23)C(=O)Nc4ccc(C)c(Nc5nccc(n5)c6ccncc6)c4

>  <parent_molecule_chembl_id>  (711) 
CHEMBL3690083

>  <assay_type>  (711) 
B

>  <src_id>  (711) 
37

>  <ligand_efficiency>  (711) 
{u'le': u'0.27', u'bei': u'14.7', u'sei': u'8.85', u'lle': u'2.86'}

>  <standard_flag>  (711) 
True

>  <molecule_chembl_id>  (711) 
CHEMBL3690083

>  <target_organism>  (711) 
Homo sapiens

>  <standard_units>  (711) 
nM

>  <record_id>  (711) 
2566585

>  <document_chembl_id>  (711) 
CHEMBL3639364

>  <bao_format>  (711) 
BAO_0000357

>  <data_validity_description>  (711) 
None

>  <activity_id>  (711) 
16318839

>  <standard_type>  (711) 
IC50

>  <target_chembl_id>  (711) 
CHEMBL1862

>  <data_validity_comment>  (711) 
None

>  <published_value>  (711) 
23

>  <document_year>  (711) 
2014

>  <target_pref_name>  (711) 
Tyrosine-protein kinase ABL

>  <assay_chembl_id>  (711) 
CHEMBL3705219

>  <standard_relation>  (711) 
=

>  <assay_description>  (711) 
BindingDB_Patents: Enzyme Assay. The activity of the compounds of this invention on Abl, c-Kit and PDGFR kinases was tested by Mobility Shift Assay (MSA). Kinase buffer: 62.5 mM HEPES, pH 7.5; 0.001875% Brij-35; 12.5 mM MgCl2; 2.5 mM DTT. Stop buffer: 100 mM HEPES, pH 7.5; 0.015% Brij-35; 0.2% coating agent 3; 50 mM EDTA. Preparation of kinase solution: Kinase solution was obtained by dissolving kinases in the kinase buffer mentioned above. With regard to c-Kit kinase, the pre-activation treatments should be carried out as follows. 700 nM c-Kit, 2 mM ATP, 4 mM DTT and 10 mM MgCl2 were dissolved in kinase buffer. After being incubated at 28° C. for 15 minutes, the solution was added to the kinase buffer.

>  <published_relation>  (711) 
=

>  <standard_value>  (711) 
23

>  <qudt_units>  (711) 
http://www.openphacts.org/units/Nanomolar

>  <target_tax_id>  (711) 
9606

>  <bao_label>  (711) 
single protein format

>  <published_units>  (711) 
nM

>  <pchembl_value>  (711) 
7.64

>  <published_type>  (711) 
IC50

>  <activity_comment>  (711) 
248427

$$$$

     RDKit          

 41 46  0  0  0  0  0  0  0  0999 V2000
    0.0000    0.0000    0.0000 C   0  0  0  0  0  0  0  0  0  0  0  0
    0.0000    0.0000    0.0000 C   0  0  0  0  0  0  0  0  0  0  0  0
    0.0000    0.0000    0.0000 O   0  0  0  0  0  0  0  0  0  0  0  0
    0.0000    0.0000    0.0000 N   0  0  0  0  0  0  0  0  0  0  0  0
    0.0000    0.0000    0.0000 C   0  0  0  0  0  0  0  0  0  0  0  0
    0.0000    0.0000    0.0000 C   0  0  0  0  0  0  0  0  0  0  0  0
    0.0000    0.0000    0.0000 N   0  0  0  0  0  0  0  0  0  0  0  0
    0.0000    0.0000    0.0000 C   0  0  0  0  0  0  0  0  0  0  0  0
    0.0000    0.0000    0.0000 C   0  0  0  0  0  0  0  0  0  0  0  0
    0.0000    0.0000    0.0000 C   0  0  0  0  0  0  0  0  0  0  0  0
    0.0000    0.0000    0.0000 C   0  0  0  0  0  0  0  0  0  0  0  0
    0.0000    0.0000    0.0000 C   0  0  0  0  0  0  0  0  0  0  0  0
    0.0000    0.0000    0.0000 C   0  0  0  0  0  0  0  0  0  0  0  0
    0.0000    0.0000    0.0000 C   0  0  0  0  0  0  0  0  0  0  0  0
    0.0000    0.0000    0.0000 C   0  0  0  0  0  0  0  0  0  0  0  0
    0.0000    0.0000    0.0000 C   0  0  0  0  0  0  0  0  0  0  0  0
    0.0000    0.0000    0.0000 C   0  0  0  0  0  0  0  0  0  0  0  0
    0.0000    0.0000    0.0000 C   0  0  0  0  0  0  0  0  0  0  0  0
    0.0000    0.0000    0.0000 C   0  0  0  0  0  0  0  0  0  0  0  0
    0.0000    0.0000    0.0000 O   0  0  0  0  0  0  0  0  0  0  0  0
    0.0000    0.0000    0.0000 N   0  0  0  0  0  0  0  0  0  0  0  0
    0.0000    0.0000    0.0000 C   0  0  0  0  0  0  0  0  0  0  0  0
    0.0000    0.0000    0.0000 C   0  0  0  0  0  0  0  0  0  0  0  0
    0.0000    0.0000    0.0000 C   0  0  0  0  0  0  0  0  0  0  0  0
    0.0000    0.0000    0.0000 C   0  0  0  0  0  0  0  0  0  0  0  0
    0.0000    0.0000    0.0000 C   0  0  0  0  0  0  0  0  0  0  0  0
    0.0000    0.0000    0.0000 C   0  0  0  0  0  0  0  0  0  0  0  0
    0.0000    0.0000    0.0000 N   0  0  0  0  0  0  0  0  0  0  0  0
    0.0000    0.0000    0.0000 C   0  0  0  0  0  0  0  0  0  0  0  0
    0.0000    0.0000    0.0000 N   0  0  0  0  0  0  0  0  0  0  0  0
    0.0000    0.0000    0.0000 C   0  0  0  0  0  0  0  0  0  0  0  0
    0.0000    0.0000    0.0000 C   0  0  0  0  0  0  0  0  0  0  0  0
    0.0000    0.0000    0.0000 C   0  0  0  0  0  0  0  0  0  0  0  0
    0.0000    0.0000    0.0000 N   0  0  0  0  0  0  0  0  0  0  0  0
    0.0000    0.0000    0.0000 C   0  0  0  0  0  0  0  0  0  0  0  0
    0.0000    0.0000    0.0000 C   0  0  0  0  0  0  0  0  0  0  0  0
    0.0000    0.0000    0.0000 C   0  0  0  0  0  0  0  0  0  0  0  0
    0.0000    0.0000    0.0000 C   0  0  0  0  0  0  0  0  0  0  0  0
    0.0000    0.0000    0.0000 N   0  0  0  0  0  0  0  0  0  0  0  0
    0.0000    0.0000    0.0000 C   0  0  0  0  0  0  0  0  0  0  0  0
    0.0000    0.0000    0.0000 C   0  0  0  0  0  0  0  0  0  0  0  0
  1  2  1  0
  2  3  2  0
  2  4  1  0
  4  5  1  0
  5  6  1  0
  6  7  1  0
  7  8  1  0
  8  9  1  0
  7 10  1  0
 10 11  1  0
 11 12  1  0
 12 13  1  0
 13 14  2  0
 14 15  1  0
 15 16  2  0
 16 17  1  0
 17 18  2  0
 15 19  1  0
 19 20  2  0
 19 21  1  0
 21 22  1  0
 22 23  2  0
 23 24  1  0
 24 25  2  0
 25 26  1  0
 25 27  1  0
 27 28  1  0
 28 29  1  0
 29 30  2  0
 30 31  1  0
 31 32  2  0
 32 33  1  0
 33 34  2  0
 33 35  1  0
 35 36  2  0
 36 37  1  0
 37 38  2  0
 38 39  1  0
 39 40  2  0
 27 41  2  0
  9  4  1  0
 18 10  1  0
 18 13  1  0
 41 22  1  0
 34 29  1  0
 40 35  1  0
M  END
>  <pIC50>  (712) 
6.39

>  <ChEMBL_ID>  (712) 
CHEMBL3690078

>  <document_journal>  (712) 
None

>  <bao_endpoint>  (712) 
BAO_0000190

>  <potential_duplicate>  (712) 
None

>  <uo_units>  (712) 
UO_0000065

>  <canonical_smiles>  (712) 
CC(=O)N1CCN(CC1)C2CCc3cc(ccc23)C(=O)Nc4ccc(C)c(Nc5nccc(n5)c6cccnc6)c4

>  <parent_molecule_chembl_id>  (712) 
CHEMBL3690078

>  <assay_type>  (712) 
B

>  <src_id>  (712) 
37

>  <ligand_efficiency>  (712) 
{u'le': u'0.21', u'bei': u'11.66', u'sei': u'6.18', u'lle': u'2.35'}

>  <standard_flag>  (712) 
True

>  <molecule_chembl_id>  (712) 
CHEMBL3690078

>  <target_organism>  (712) 
Homo sapiens

>  <standard_units>  (712) 
nM

>  <record_id>  (712) 
2566580

>  <document_chembl_id>  (712) 
CHEMBL3639364

>  <bao_format>  (712) 
BAO_0000357

>  <data_validity_description>  (712) 
None

>  <activity_id>  (712) 
16330172

>  <standard_type>  (712) 
IC50

>  <target_chembl_id>  (712) 
CHEMBL1862

>  <data_validity_comment>  (712) 
None

>  <published_value>  (712) 
411

>  <document_year>  (712) 
2014

>  <target_pref_name>  (712) 
Tyrosine-protein kinase ABL

>  <assay_chembl_id>  (712) 
CHEMBL3705219

>  <standard_relation>  (712) 
=

>  <assay_description>  (712) 
BindingDB_Patents: Enzyme Assay. The activity of the compounds of this invention on Abl, c-Kit and PDGFR kinases was tested by Mobility Shift Assay (MSA). Kinase buffer: 62.5 mM HEPES, pH 7.5; 0.001875% Brij-35; 12.5 mM MgCl2; 2.5 mM DTT. Stop buffer: 100 mM HEPES, pH 7.5; 0.015% Brij-35; 0.2% coating agent 3; 50 mM EDTA. Preparation of kinase solution: Kinase solution was obtained by dissolving kinases in the kinase buffer mentioned above. With regard to c-Kit kinase, the pre-activation treatments should be carried out as follows. 700 nM c-Kit, 2 mM ATP, 4 mM DTT and 10 mM MgCl2 were dissolved in kinase buffer. After being incubated at 28° C. for 15 minutes, the solution was added to the kinase buffer.

>  <published_relation>  (712) 
=

>  <standard_value>  (712) 
411

>  <qudt_units>  (712) 
http://www.openphacts.org/units/Nanomolar

>  <target_tax_id>  (712) 
9606

>  <bao_label>  (712) 
single protein format

>  <published_units>  (712) 
nM

>  <pchembl_value>  (712) 
6.39

>  <published_type>  (712) 
IC50

>  <activity_comment>  (712) 
248419

$$$$

     RDKit          

 38 43  0  0  0  0  0  0  0  0999 V2000
    0.0000    0.0000    0.0000 C   0  0  0  0  0  0  0  0  0  0  0  0
    0.0000    0.0000    0.0000 C   0  0  0  0  0  0  0  0  0  0  0  0
    0.0000    0.0000    0.0000 C   0  0  0  0  0  0  0  0  0  0  0  0
    0.0000    0.0000    0.0000 C   0  0  0  0  0  0  0  0  0  0  0  0
    0.0000    0.0000    0.0000 C   0  0  0  0  0  0  0  0  0  0  0  0
    0.0000    0.0000    0.0000 N   0  0  0  0  0  0  0  0  0  0  0  0
    0.0000    0.0000    0.0000 C   0  0  0  0  0  0  0  0  0  0  0  0
    0.0000    0.0000    0.0000 O   0  0  0  0  0  0  0  0  0  0  0  0
    0.0000    0.0000    0.0000 C   0  0  0  0  0  0  0  0  0  0  0  0
    0.0000    0.0000    0.0000 C   0  0  0  0  0  0  0  0  0  0  0  0
    0.0000    0.0000    0.0000 C   0  0  0  0  0  0  0  0  0  0  0  0
    0.0000    0.0000    0.0000 C   0  0  0  0  0  0  0  0  0  0  0  0
    0.0000    0.0000    0.0000 C   0  0  0  0  0  0  0  0  0  0  0  0
    0.0000    0.0000    0.0000 C   0  0  0  0  0  0  0  0  0  0  0  0
    0.0000    0.0000    0.0000 C   0  0  0  0  0  0  0  0  0  0  0  0
    0.0000    0.0000    0.0000 C   0  0  0  0  0  0  0  0  0  0  0  0
    0.0000    0.0000    0.0000 C   0  0  0  0  0  0  0  0  0  0  0  0
    0.0000    0.0000    0.0000 N   0  0  0  0  0  0  0  0  0  0  0  0
    0.0000    0.0000    0.0000 C   0  0  0  0  0  0  0  0  0  0  0  0
    0.0000    0.0000    0.0000 C   0  0  0  0  0  0  0  0  0  0  0  0
    0.0000    0.0000    0.0000 N   0  0  0  0  0  0  0  0  0  0  0  0
    0.0000    0.0000    0.0000 C   0  0  0  0  0  0  0  0  0  0  0  0
    0.0000    0.0000    0.0000 C   0  0  0  0  0  0  0  0  0  0  0  0
    0.0000    0.0000    0.0000 C   0  0  0  0  0  0  0  0  0  0  0  0
    0.0000    0.0000    0.0000 C   0  0  0  0  0  0  0  0  0  0  0  0
    0.0000    0.0000    0.0000 N   0  0  0  0  0  0  0  0  0  0  0  0
    0.0000    0.0000    0.0000 C   0  0  0  0  0  0  0  0  0  0  0  0
    0.0000    0.0000    0.0000 N   0  0  0  0  0  0  0  0  0  0  0  0
    0.0000    0.0000    0.0000 C   0  0  0  0  0  0  0  0  0  0  0  0
    0.0000    0.0000    0.0000 C   0  0  0  0  0  0  0  0  0  0  0  0
    0.0000    0.0000    0.0000 C   0  0  0  0  0  0  0  0  0  0  0  0
    0.0000    0.0000    0.0000 N   0  0  0  0  0  0  0  0  0  0  0  0
    0.0000    0.0000    0.0000 C   0  0  0  0  0  0  0  0  0  0  0  0
    0.0000    0.0000    0.0000 C   0  0  0  0  0  0  0  0  0  0  0  0
    0.0000    0.0000    0.0000 C   0  0  0  0  0  0  0  0  0  0  0  0
    0.0000    0.0000    0.0000 C   0  0  0  0  0  0  0  0  0  0  0  0
    0.0000    0.0000    0.0000 N   0  0  0  0  0  0  0  0  0  0  0  0
    0.0000    0.0000    0.0000 C   0  0  0  0  0  0  0  0  0  0  0  0
  1  2  1  0
  2  3  2  0
  3  4  1  0
  4  5  2  0
  5  6  1  0
  6  7  1  0
  7  8  2  0
  7  9  1  0
  9 10  2  0
 10 11  1  0
 11 12  2  0
 12 13  1  0
 13 14  1  0
 14 15  1  0
 15 16  1  0
 16 17  2  0
 13 18  1  0
 18 19  1  0
 19 20  1  0
 20 21  1  0
 21 22  1  0
 22 23  1  0
  5 24  1  0
 24 25  2  0
 25 26  1  0
 26 27  1  0
 27 28  2  0
 28 29  1  0
 29 30  2  0
 30 31  1  0
 31 32  2  0
 31 33  1  0
 33 34  2  0
 34 35  1  0
 35 36  2  0
 36 37  1  0
 37 38  2  0
 25  2  1  0
 17  9  1  0
 16 12  1  0
 23 18  1  0
 32 27  1  0
 38 33  1  0
M  END
>  <pIC50>  (713) 
8.21

>  <ChEMBL_ID>  (713) 
CHEMBL3690074

>  <document_journal>  (713) 
None

>  <bao_endpoint>  (713) 
BAO_0000190

>  <potential_duplicate>  (713) 
None

>  <uo_units>  (713) 
UO_0000065

>  <canonical_smiles>  (713) 
Cc1ccc(NC(=O)c2ccc3C(CCc3c2)N4CCNCC4)cc1Nc5nccc(n5)c6cccnc6

>  <parent_molecule_chembl_id>  (713) 
CHEMBL3690074

>  <assay_type>  (713) 
B

>  <src_id>  (713) 
37

>  <ligand_efficiency>  (713) 
{u'le': u'0.29', u'bei': u'16.23', u'sei': u'8.63', u'lle': u'3.97'}

>  <standard_flag>  (713) 
True

>  <molecule_chembl_id>  (713) 
CHEMBL3690074

>  <target_organism>  (713) 
Homo sapiens

>  <standard_units>  (713) 
nM

>  <record_id>  (713) 
2566576

>  <document_chembl_id>  (713) 
CHEMBL3639364

>  <bao_format>  (713) 
BAO_0000357

>  <data_validity_description>  (713) 
None

>  <activity_id>  (713) 
16355971

>  <standard_type>  (713) 
IC50

>  <target_chembl_id>  (713) 
CHEMBL1862

>  <data_validity_comment>  (713) 
None

>  <published_value>  (713) 
6.2

>  <document_year>  (713) 
2014

>  <target_pref_name>  (713) 
Tyrosine-protein kinase ABL

>  <assay_chembl_id>  (713) 
CHEMBL3705219

>  <standard_relation>  (713) 
=

>  <assay_description>  (713) 
BindingDB_Patents: Enzyme Assay. The activity of the compounds of this invention on Abl, c-Kit and PDGFR kinases was tested by Mobility Shift Assay (MSA). Kinase buffer: 62.5 mM HEPES, pH 7.5; 0.001875% Brij-35; 12.5 mM MgCl2; 2.5 mM DTT. Stop buffer: 100 mM HEPES, pH 7.5; 0.015% Brij-35; 0.2% coating agent 3; 50 mM EDTA. Preparation of kinase solution: Kinase solution was obtained by dissolving kinases in the kinase buffer mentioned above. With regard to c-Kit kinase, the pre-activation treatments should be carried out as follows. 700 nM c-Kit, 2 mM ATP, 4 mM DTT and 10 mM MgCl2 were dissolved in kinase buffer. After being incubated at 28° C. for 15 minutes, the solution was added to the kinase buffer.

>  <published_relation>  (713) 
=

>  <standard_value>  (713) 
6.2

>  <qudt_units>  (713) 
http://www.openphacts.org/units/Nanomolar

>  <target_tax_id>  (713) 
9606

>  <bao_label>  (713) 
single protein format

>  <published_units>  (713) 
nM

>  <pchembl_value>  (713) 
8.21

>  <published_type>  (713) 
IC50

>  <activity_comment>  (713) 
248415

$$$$

     RDKit          

 21 23  0  0  0  0  0  0  0  0999 V2000
    0.0000    0.0000    0.0000 C   0  0  0  0  0  0  0  0  0  0  0  0
    0.0000    0.0000    0.0000 C   0  0  0  0  0  0  0  0  0  0  0  0
    0.0000    0.0000    0.0000 C   0  0  0  0  0  0  0  0  0  0  0  0
    0.0000    0.0000    0.0000 N   0  0  0  0  0  0  0  0  0  0  0  0
    0.0000    0.0000    0.0000 N   0  0  0  0  0  0  0  0  0  0  0  0
    0.0000    0.0000    0.0000 C   0  0  0  0  0  0  0  0  0  0  0  0
    0.0000    0.0000    0.0000 C   0  0  0  0  0  0  0  0  0  0  0  0
    0.0000    0.0000    0.0000 C   0  0  0  0  0  0  0  0  0  0  0  0
    0.0000    0.0000    0.0000 C   0  0  0  0  0  0  0  0  0  0  0  0
    0.0000    0.0000    0.0000 C   0  0  0  0  0  0  0  0  0  0  0  0
    0.0000    0.0000    0.0000 C   0  0  0  0  0  0  0  0  0  0  0  0
    0.0000    0.0000    0.0000 C   0  0  0  0  0  0  0  0  0  0  0  0
    0.0000    0.0000    0.0000 C   0  0  0  0  0  0  0  0  0  0  0  0
    0.0000    0.0000    0.0000 C   0  0  0  0  0  0  0  0  0  0  0  0
    0.0000    0.0000    0.0000 C   0  0  0  0  0  0  0  0  0  0  0  0
    0.0000    0.0000    0.0000 C   0  0  0  0  0  0  0  0  0  0  0  0
    0.0000    0.0000    0.0000 N   0  0  0  0  0  0  0  0  0  0  0  0
    0.0000    0.0000    0.0000 N   0  0  0  0  0  0  0  0  0  0  0  0
    0.0000    0.0000    0.0000 C   0  0  0  0  0  0  0  0  0  0  0  0
    0.0000    0.0000    0.0000 N   0  0  0  0  0  0  0  0  0  0  0  0
    0.0000    0.0000    0.0000 C   0  0  0  0  0  0  0  0  0  0  0  0
  1  2  1  0
  2  3  1  0
  2  4  1  0
  4  5  1  0
  5  6  2  0
  6  7  1  0
  7  8  3  0
  8  9  1  0
  9 10  2  0
 10 11  1  0
 11 12  2  0
 12 13  1  0
 13 14  2  0
  6 15  1  0
 15 16  2  0
 16 17  1  0
 16 18  1  0
 18 19  2  0
 19 20  1  0
 20 21  2  0
 21  4  1  0
 14  9  1  0
 21 15  1  0
M  END
>  <pIC50>  (714) 
6.25

>  <ChEMBL_ID>  (714) 
CHEMBL2058538

>  <document_journal>  (714) 
J. Med. Chem.

>  <bao_endpoint>  (714) 
BAO_0000190

>  <potential_duplicate>  (714) 
None

>  <uo_units>  (714) 
UO_0000065

>  <canonical_smiles>  (714) 
CC(C)n1nc(C#Cc2ccccc2)c3c(N)ncnc13

>  <parent_molecule_chembl_id>  (714) 
CHEMBL2058538

>  <assay_type>  (714) 
B

>  <src_id>  (714) 
1

>  <ligand_efficiency>  (714) 
None

>  <standard_flag>  (714) 
True

>  <molecule_chembl_id>  (714) 
CHEMBL2058538

>  <target_organism>  (714) 
Homo sapiens

>  <standard_units>  (714) 
nM

>  <record_id>  (714) 
2735470

>  <document_chembl_id>  (714) 
CHEMBL3734755

>  <bao_format>  (714) 
None

>  <data_validity_description>  (714) 
None

>  <activity_id>  (714) 
16386290

>  <standard_type>  (714) 
IC50

>  <target_chembl_id>  (714) 
CHEMBL1862

>  <data_validity_comment>  (714) 
None

>  <published_value>  (714) 
520

>  <document_year>  (714) 
2015

>  <target_pref_name>  (714) 
Tyrosine-protein kinase ABL

>  <assay_chembl_id>  (714) 
CHEMBL3737992

>  <standard_relation>  (714) 
=

>  <assay_description>  (714) 
Inhibition of human wild-type Abl after 30 mins by phosphocellulose paper disk assay using 0.1 mM EAIYAAPFAKKK peptide substrate

>  <published_relation>  (714) 
=

>  <standard_value>  (714) 
520

>  <qudt_units>  (714) 
http://www.openphacts.org/units/Nanomolar

>  <target_tax_id>  (714) 
9606

>  <bao_label>  (714) 
None

>  <published_units>  (714) 
nM

>  <pchembl_value>  (714) 
6.28

>  <published_type>  (714) 
IC50

>  <activity_comment>  (714) 
None

$$$$

     RDKit          

 22 24  0  0  0  0  0  0  0  0999 V2000
    0.0000    0.0000    0.0000 C   0  0  0  0  0  0  0  0  0  0  0  0
    0.0000    0.0000    0.0000 C   0  0  0  0  0  0  0  0  0  0  0  0
    0.0000    0.0000    0.0000 C   0  0  0  0  0  0  0  0  0  0  0  0
    0.0000    0.0000    0.0000 N   0  0  0  0  0  0  0  0  0  0  0  0
    0.0000    0.0000    0.0000 N   0  0  0  0  0  0  0  0  0  0  0  0
    0.0000    0.0000    0.0000 C   0  0  0  0  0  0  0  0  0  0  0  0
    0.0000    0.0000    0.0000 C   0  0  0  0  0  0  0  0  0  0  0  0
    0.0000    0.0000    0.0000 C   0  0  0  0  0  0  0  0  0  0  0  0
    0.0000    0.0000    0.0000 C   0  0  0  0  0  0  0  0  0  0  0  0
    0.0000    0.0000    0.0000 C   0  0  0  0  0  0  0  0  0  0  0  0
    0.0000    0.0000    0.0000 C   0  0  0  0  0  0  0  0  0  0  0  0
    0.0000    0.0000    0.0000 C   0  0  0  0  0  0  0  0  0  0  0  0
    0.0000    0.0000    0.0000 C   0  0  0  0  0  0  0  0  0  0  0  0
    0.0000    0.0000    0.0000 O   0  0  0  0  0  0  0  0  0  0  0  0
    0.0000    0.0000    0.0000 C   0  0  0  0  0  0  0  0  0  0  0  0
    0.0000    0.0000    0.0000 C   0  0  0  0  0  0  0  0  0  0  0  0
    0.0000    0.0000    0.0000 C   0  0  0  0  0  0  0  0  0  0  0  0
    0.0000    0.0000    0.0000 N   0  0  0  0  0  0  0  0  0  0  0  0
    0.0000    0.0000    0.0000 N   0  0  0  0  0  0  0  0  0  0  0  0
    0.0000    0.0000    0.0000 C   0  0  0  0  0  0  0  0  0  0  0  0
    0.0000    0.0000    0.0000 N   0  0  0  0  0  0  0  0  0  0  0  0
    0.0000    0.0000    0.0000 C   0  0  0  0  0  0  0  0  0  0  0  0
  1  2  1  0
  2  3  1  0
  2  4  1  0
  4  5  1  0
  5  6  2  0
  6  7  1  0
  7  8  3  0
  8  9  1  0
  9 10  2  0
 10 11  1  0
 11 12  2  0
 12 13  1  0
 13 14  1  0
 13 15  2  0
  6 16  1  0
 16 17  2  0
 17 18  1  0
 17 19  1  0
 19 20  2  0
 20 21  1  0
 21 22  2  0
 22  4  1  0
 15  9  1  0
 22 16  1  0
M  END
>  <pIC50>  (715) 
8.1

>  <ChEMBL_ID>  (715) 
CHEMBL1213120

>  <document_journal>  (715) 
J. Med. Chem.

>  <bao_endpoint>  (715) 
BAO_0000190

>  <potential_duplicate>  (715) 
None

>  <uo_units>  (715) 
UO_0000065

>  <canonical_smiles>  (715) 
CC(C)n1nc(C#Cc2cccc(O)c2)c3c(N)ncnc13

>  <parent_molecule_chembl_id>  (715) 
CHEMBL1213120

>  <assay_type>  (715) 
B

>  <src_id>  (715) 
1

>  <ligand_efficiency>  (715) 
None

>  <standard_flag>  (715) 
True

>  <molecule_chembl_id>  (715) 
CHEMBL1213120

>  <target_organism>  (715) 
Homo sapiens

>  <standard_units>  (715) 
nM

>  <record_id>  (715) 
2735471

>  <document_chembl_id>  (715) 
CHEMBL3734755

>  <bao_format>  (715) 
None

>  <data_validity_description>  (715) 
None

>  <activity_id>  (715) 
16386291

>  <standard_type>  (715) 
IC50

>  <target_chembl_id>  (715) 
CHEMBL1862

>  <data_validity_comment>  (715) 
None

>  <published_value>  (715) 
8

>  <document_year>  (715) 
2015

>  <target_pref_name>  (715) 
Tyrosine-protein kinase ABL

>  <assay_chembl_id>  (715) 
CHEMBL3737992

>  <standard_relation>  (715) 
=

>  <assay_description>  (715) 
Inhibition of human wild-type Abl after 30 mins by phosphocellulose paper disk assay using 0.1 mM EAIYAAPFAKKK peptide substrate

>  <published_relation>  (715) 
=

>  <standard_value>  (715) 
8

>  <qudt_units>  (715) 
http://www.openphacts.org/units/Nanomolar

>  <target_tax_id>  (715) 
9606

>  <bao_label>  (715) 
None

>  <published_units>  (715) 
nM

>  <pchembl_value>  (715) 
8.1

>  <published_type>  (715) 
IC50

>  <activity_comment>  (715) 
None

$$$$

     RDKit          

 22 24  0  0  0  0  0  0  0  0999 V2000
    0.0000    0.0000    0.0000 C   0  0  0  0  0  0  0  0  0  0  0  0
    0.0000    0.0000    0.0000 C   0  0  0  0  0  0  0  0  0  0  0  0
    0.0000    0.0000    0.0000 C   0  0  0  0  0  0  0  0  0  0  0  0
    0.0000    0.0000    0.0000 N   0  0  0  0  0  0  0  0  0  0  0  0
    0.0000    0.0000    0.0000 N   0  0  0  0  0  0  0  0  0  0  0  0
    0.0000    0.0000    0.0000 C   0  0  0  0  0  0  0  0  0  0  0  0
    0.0000    0.0000    0.0000 C   0  0  0  0  0  0  0  0  0  0  0  0
    0.0000    0.0000    0.0000 C   0  0  0  0  0  0  0  0  0  0  0  0
    0.0000    0.0000    0.0000 C   0  0  0  0  0  0  0  0  0  0  0  0
    0.0000    0.0000    0.0000 C   0  0  0  0  0  0  0  0  0  0  0  0
    0.0000    0.0000    0.0000 C   0  0  0  0  0  0  0  0  0  0  0  0
    0.0000    0.0000    0.0000 C   0  0  0  0  0  0  0  0  0  0  0  0
    0.0000    0.0000    0.0000 C   0  0  0  0  0  0  0  0  0  0  0  0
    0.0000    0.0000    0.0000 N   0  0  0  0  0  0  0  0  0  0  0  0
    0.0000    0.0000    0.0000 C   0  0  0  0  0  0  0  0  0  0  0  0
    0.0000    0.0000    0.0000 C   0  0  0  0  0  0  0  0  0  0  0  0
    0.0000    0.0000    0.0000 C   0  0  0  0  0  0  0  0  0  0  0  0
    0.0000    0.0000    0.0000 N   0  0  0  0  0  0  0  0  0  0  0  0
    0.0000    0.0000    0.0000 N   0  0  0  0  0  0  0  0  0  0  0  0
    0.0000    0.0000    0.0000 C   0  0  0  0  0  0  0  0  0  0  0  0
    0.0000    0.0000    0.0000 N   0  0  0  0  0  0  0  0  0  0  0  0
    0.0000    0.0000    0.0000 C   0  0  0  0  0  0  0  0  0  0  0  0
  1  2  1  0
  2  3  1  0
  2  4  1  0
  4  5  1  0
  5  6  2  0
  6  7  1  0
  7  8  3  0
  8  9  1  0
  9 10  2  0
 10 11  1  0
 11 12  2  0
 12 13  1  0
 13 14  1  0
 13 15  2  0
  6 16  1  0
 16 17  2  0
 17 18  1  0
 17 19  1  0
 19 20  2  0
 20 21  1  0
 21 22  2  0
 22  4  1  0
 15  9  1  0
 22 16  1  0
M  END
>  <pIC50>  (716) 
6.34

>  <ChEMBL_ID>  (716) 
CHEMBL2058540

>  <document_journal>  (716) 
J. Med. Chem.

>  <bao_endpoint>  (716) 
BAO_0000190

>  <potential_duplicate>  (716) 
None

>  <uo_units>  (716) 
UO_0000065

>  <canonical_smiles>  (716) 
CC(C)n1nc(C#Cc2cccc(N)c2)c3c(N)ncnc13

>  <parent_molecule_chembl_id>  (716) 
CHEMBL2058540

>  <assay_type>  (716) 
B

>  <src_id>  (716) 
1

>  <ligand_efficiency>  (716) 
None

>  <standard_flag>  (716) 
True

>  <molecule_chembl_id>  (716) 
CHEMBL2058540

>  <target_organism>  (716) 
Homo sapiens

>  <standard_units>  (716) 
nM

>  <record_id>  (716) 
2735472

>  <document_chembl_id>  (716) 
CHEMBL3734755

>  <bao_format>  (716) 
None

>  <data_validity_description>  (716) 
None

>  <activity_id>  (716) 
16386292

>  <standard_type>  (716) 
IC50

>  <target_chembl_id>  (716) 
CHEMBL1862

>  <data_validity_comment>  (716) 
None

>  <published_value>  (716) 
540

>  <document_year>  (716) 
2015

>  <target_pref_name>  (716) 
Tyrosine-protein kinase ABL

>  <assay_chembl_id>  (716) 
CHEMBL3737992

>  <standard_relation>  (716) 
=

>  <assay_description>  (716) 
Inhibition of human wild-type Abl after 30 mins by phosphocellulose paper disk assay using 0.1 mM EAIYAAPFAKKK peptide substrate

>  <published_relation>  (716) 
=

>  <standard_value>  (716) 
540

>  <qudt_units>  (716) 
http://www.openphacts.org/units/Nanomolar

>  <target_tax_id>  (716) 
9606

>  <bao_label>  (716) 
None

>  <published_units>  (716) 
nM

>  <pchembl_value>  (716) 
6.27

>  <published_type>  (716) 
IC50

>  <activity_comment>  (716) 
None

$$$$

     RDKit          

 22 24  0  0  0  0  0  0  0  0999 V2000
    0.0000    0.0000    0.0000 C   0  0  0  0  0  0  0  0  0  0  0  0
    0.0000    0.0000    0.0000 C   0  0  0  0  0  0  0  0  0  0  0  0
    0.0000    0.0000    0.0000 C   0  0  0  0  0  0  0  0  0  0  0  0
    0.0000    0.0000    0.0000 N   0  0  0  0  0  0  0  0  0  0  0  0
    0.0000    0.0000    0.0000 N   0  0  0  0  0  0  0  0  0  0  0  0
    0.0000    0.0000    0.0000 C   0  0  0  0  0  0  0  0  0  0  0  0
    0.0000    0.0000    0.0000 C   0  0  0  0  0  0  0  0  0  0  0  0
    0.0000    0.0000    0.0000 C   0  0  0  0  0  0  0  0  0  0  0  0
    0.0000    0.0000    0.0000 C   0  0  0  0  0  0  0  0  0  0  0  0
    0.0000    0.0000    0.0000 C   0  0  0  0  0  0  0  0  0  0  0  0
    0.0000    0.0000    0.0000 C   0  0  0  0  0  0  0  0  0  0  0  0
    0.0000    0.0000    0.0000 C   0  0  0  0  0  0  0  0  0  0  0  0
    0.0000    0.0000    0.0000 C   0  0  0  0  0  0  0  0  0  0  0  0
    0.0000    0.0000    0.0000 F   0  0  0  0  0  0  0  0  0  0  0  0
    0.0000    0.0000    0.0000 C   0  0  0  0  0  0  0  0  0  0  0  0
    0.0000    0.0000    0.0000 C   0  0  0  0  0  0  0  0  0  0  0  0
    0.0000    0.0000    0.0000 C   0  0  0  0  0  0  0  0  0  0  0  0
    0.0000    0.0000    0.0000 N   0  0  0  0  0  0  0  0  0  0  0  0
    0.0000    0.0000    0.0000 N   0  0  0  0  0  0  0  0  0  0  0  0
    0.0000    0.0000    0.0000 C   0  0  0  0  0  0  0  0  0  0  0  0
    0.0000    0.0000    0.0000 N   0  0  0  0  0  0  0  0  0  0  0  0
    0.0000    0.0000    0.0000 C   0  0  0  0  0  0  0  0  0  0  0  0
  1  2  1  0
  2  3  1  0
  2  4  1  0
  4  5  1  0
  5  6  2  0
  6  7  1  0
  7  8  3  0
  8  9  1  0
  9 10  2  0
 10 11  1  0
 11 12  2  0
 12 13  1  0
 13 14  1  0
 13 15  2  0
  6 16  1  0
 16 17  2  0
 17 18  1  0
 17 19  1  0
 19 20  2  0
 20 21  1  0
 21 22  2  0
 22  4  1  0
 15  9  1  0
 22 16  1  0
M  END
>  <pIC50>  (717) 
5.84

>  <ChEMBL_ID>  (717) 
CHEMBL3735795

>  <document_journal>  (717) 
J. Med. Chem.

>  <bao_endpoint>  (717) 
BAO_0000190

>  <potential_duplicate>  (717) 
None

>  <uo_units>  (717) 
UO_0000065

>  <canonical_smiles>  (717) 
CC(C)n1nc(C#Cc2cccc(F)c2)c3c(N)ncnc13

>  <parent_molecule_chembl_id>  (717) 
CHEMBL3735795

>  <assay_type>  (717) 
B

>  <src_id>  (717) 
1

>  <ligand_efficiency>  (717) 
None

>  <standard_flag>  (717) 
True

>  <molecule_chembl_id>  (717) 
CHEMBL3735795

>  <target_organism>  (717) 
Homo sapiens

>  <standard_units>  (717) 
nM

>  <record_id>  (717) 
2735473

>  <document_chembl_id>  (717) 
CHEMBL3734755

>  <bao_format>  (717) 
None

>  <data_validity_description>  (717) 
None

>  <activity_id>  (717) 
16386293

>  <standard_type>  (717) 
IC50

>  <target_chembl_id>  (717) 
CHEMBL1862

>  <data_validity_comment>  (717) 
None

>  <published_value>  (717) 
1430

>  <document_year>  (717) 
2015

>  <target_pref_name>  (717) 
Tyrosine-protein kinase ABL

>  <assay_chembl_id>  (717) 
CHEMBL3737992

>  <standard_relation>  (717) 
=

>  <assay_description>  (717) 
Inhibition of human wild-type Abl after 30 mins by phosphocellulose paper disk assay using 0.1 mM EAIYAAPFAKKK peptide substrate

>  <published_relation>  (717) 
=

>  <standard_value>  (717) 
1430

>  <qudt_units>  (717) 
http://www.openphacts.org/units/Nanomolar

>  <target_tax_id>  (717) 
9606

>  <bao_label>  (717) 
None

>  <published_units>  (717) 
nM

>  <pchembl_value>  (717) 
5.85

>  <published_type>  (717) 
IC50

>  <activity_comment>  (717) 
None

$$$$

     RDKit          

 22 24  0  0  0  0  0  0  0  0999 V2000
    0.0000    0.0000    0.0000 C   0  0  0  0  0  0  0  0  0  0  0  0
    0.0000    0.0000    0.0000 C   0  0  0  0  0  0  0  0  0  0  0  0
    0.0000    0.0000    0.0000 C   0  0  0  0  0  0  0  0  0  0  0  0
    0.0000    0.0000    0.0000 N   0  0  0  0  0  0  0  0  0  0  0  0
    0.0000    0.0000    0.0000 N   0  0  0  0  0  0  0  0  0  0  0  0
    0.0000    0.0000    0.0000 C   0  0  0  0  0  0  0  0  0  0  0  0
    0.0000    0.0000    0.0000 C   0  0  0  0  0  0  0  0  0  0  0  0
    0.0000    0.0000    0.0000 C   0  0  0  0  0  0  0  0  0  0  0  0
    0.0000    0.0000    0.0000 C   0  0  0  0  0  0  0  0  0  0  0  0
    0.0000    0.0000    0.0000 C   0  0  0  0  0  0  0  0  0  0  0  0
    0.0000    0.0000    0.0000 C   0  0  0  0  0  0  0  0  0  0  0  0
    0.0000    0.0000    0.0000 C   0  0  0  0  0  0  0  0  0  0  0  0
    0.0000    0.0000    0.0000 C   0  0  0  0  0  0  0  0  0  0  0  0
    0.0000    0.0000    0.0000 Cl  0  0  0  0  0  0  0  0  0  0  0  0
    0.0000    0.0000    0.0000 C   0  0  0  0  0  0  0  0  0  0  0  0
    0.0000    0.0000    0.0000 C   0  0  0  0  0  0  0  0  0  0  0  0
    0.0000    0.0000    0.0000 C   0  0  0  0  0  0  0  0  0  0  0  0
    0.0000    0.0000    0.0000 N   0  0  0  0  0  0  0  0  0  0  0  0
    0.0000    0.0000    0.0000 N   0  0  0  0  0  0  0  0  0  0  0  0
    0.0000    0.0000    0.0000 C   0  0  0  0  0  0  0  0  0  0  0  0
    0.0000    0.0000    0.0000 N   0  0  0  0  0  0  0  0  0  0  0  0
    0.0000    0.0000    0.0000 C   0  0  0  0  0  0  0  0  0  0  0  0
  1  2  1  0
  2  3  1  0
  2  4  1  0
  4  5  1  0
  5  6  2  0
  6  7  1  0
  7  8  3  0
  8  9  1  0
  9 10  2  0
 10 11  1  0
 11 12  2  0
 12 13  1  0
 13 14  1  0
 13 15  2  0
  6 16  1  0
 16 17  2  0
 17 18  1  0
 17 19  1  0
 19 20  2  0
 20 21  1  0
 21 22  2  0
 22  4  1  0
 15  9  1  0
 22 16  1  0
M  END
>  <pIC50>  (718) 
5.645

>  <ChEMBL_ID>  (718) 
CHEMBL3735491

>  <document_journal>  (718) 
J. Med. Chem.

>  <bao_endpoint>  (718) 
BAO_0000190

>  <potential_duplicate>  (718) 
None

>  <uo_units>  (718) 
UO_0000065

>  <canonical_smiles>  (718) 
CC(C)n1nc(C#Cc2cccc(Cl)c2)c3c(N)ncnc13

>  <parent_molecule_chembl_id>  (718) 
CHEMBL3735491

>  <assay_type>  (718) 
B

>  <src_id>  (718) 
1

>  <ligand_efficiency>  (718) 
None

>  <standard_flag>  (718) 
True

>  <molecule_chembl_id>  (718) 
CHEMBL3735491

>  <target_organism>  (718) 
Homo sapiens

>  <standard_units>  (718) 
nM

>  <record_id>  (718) 
2735474

>  <document_chembl_id>  (718) 
CHEMBL3734755

>  <bao_format>  (718) 
None

>  <data_validity_description>  (718) 
None

>  <activity_id>  (718) 
16386294

>  <standard_type>  (718) 
IC50

>  <target_chembl_id>  (718) 
CHEMBL1862

>  <data_validity_comment>  (718) 
None

>  <published_value>  (718) 
2700

>  <document_year>  (718) 
2015

>  <target_pref_name>  (718) 
Tyrosine-protein kinase ABL

>  <assay_chembl_id>  (718) 
CHEMBL3737992

>  <standard_relation>  (718) 
=

>  <assay_description>  (718) 
Inhibition of human wild-type Abl after 30 mins by phosphocellulose paper disk assay using 0.1 mM EAIYAAPFAKKK peptide substrate

>  <published_relation>  (718) 
=

>  <standard_value>  (718) 
2700

>  <qudt_units>  (718) 
http://www.openphacts.org/units/Nanomolar

>  <target_tax_id>  (718) 
9606

>  <bao_label>  (718) 
None

>  <published_units>  (718) 
nM

>  <pchembl_value>  (718) 
5.57

>  <published_type>  (718) 
IC50

>  <activity_comment>  (718) 
None

$$$$

     RDKit          

 22 24  0  0  0  0  0  0  0  0999 V2000
    0.0000    0.0000    0.0000 C   0  0  0  0  0  0  0  0  0  0  0  0
    0.0000    0.0000    0.0000 C   0  0  0  0  0  0  0  0  0  0  0  0
    0.0000    0.0000    0.0000 C   0  0  0  0  0  0  0  0  0  0  0  0
    0.0000    0.0000    0.0000 N   0  0  0  0  0  0  0  0  0  0  0  0
    0.0000    0.0000    0.0000 N   0  0  0  0  0  0  0  0  0  0  0  0
    0.0000    0.0000    0.0000 C   0  0  0  0  0  0  0  0  0  0  0  0
    0.0000    0.0000    0.0000 C   0  0  0  0  0  0  0  0  0  0  0  0
    0.0000    0.0000    0.0000 C   0  0  0  0  0  0  0  0  0  0  0  0
    0.0000    0.0000    0.0000 C   0  0  0  0  0  0  0  0  0  0  0  0
    0.0000    0.0000    0.0000 C   0  0  0  0  0  0  0  0  0  0  0  0
    0.0000    0.0000    0.0000 C   0  0  0  0  0  0  0  0  0  0  0  0
    0.0000    0.0000    0.0000 C   0  0  0  0  0  0  0  0  0  0  0  0
    0.0000    0.0000    0.0000 C   0  0  0  0  0  0  0  0  0  0  0  0
    0.0000    0.0000    0.0000 C   0  0  0  0  0  0  0  0  0  0  0  0
    0.0000    0.0000    0.0000 C   0  0  0  0  0  0  0  0  0  0  0  0
    0.0000    0.0000    0.0000 C   0  0  0  0  0  0  0  0  0  0  0  0
    0.0000    0.0000    0.0000 C   0  0  0  0  0  0  0  0  0  0  0  0
    0.0000    0.0000    0.0000 N   0  0  0  0  0  0  0  0  0  0  0  0
    0.0000    0.0000    0.0000 N   0  0  0  0  0  0  0  0  0  0  0  0
    0.0000    0.0000    0.0000 C   0  0  0  0  0  0  0  0  0  0  0  0
    0.0000    0.0000    0.0000 N   0  0  0  0  0  0  0  0  0  0  0  0
    0.0000    0.0000    0.0000 C   0  0  0  0  0  0  0  0  0  0  0  0
  1  2  1  0
  2  3  1  0
  2  4  1  0
  4  5  1  0
  5  6  2  0
  6  7  1  0
  7  8  3  0
  8  9  1  0
  9 10  2  0
 10 11  1  0
 11 12  2  0
 12 13  1  0
 13 14  1  0
 13 15  2  0
  6 16  1  0
 16 17  2  0
 17 18  1  0
 17 19  1  0
 19 20  2  0
 20 21  1  0
 21 22  2  0
 22  4  1  0
 15  9  1  0
 22 16  1  0
M  END
>  <pIC50>  (719) 
5.875

>  <ChEMBL_ID>  (719) 
CHEMBL3736026

>  <document_journal>  (719) 
J. Med. Chem.

>  <bao_endpoint>  (719) 
BAO_0000190

>  <potential_duplicate>  (719) 
None

>  <uo_units>  (719) 
UO_0000065

>  <canonical_smiles>  (719) 
CC(C)n1nc(C#Cc2cccc(C)c2)c3c(N)ncnc13

>  <parent_molecule_chembl_id>  (719) 
CHEMBL3736026

>  <assay_type>  (719) 
B

>  <src_id>  (719) 
1

>  <ligand_efficiency>  (719) 
None

>  <standard_flag>  (719) 
True

>  <molecule_chembl_id>  (719) 
CHEMBL3736026

>  <target_organism>  (719) 
Homo sapiens

>  <standard_units>  (719) 
nM

>  <record_id>  (719) 
2735475

>  <document_chembl_id>  (719) 
CHEMBL3734755

>  <bao_format>  (719) 
None

>  <data_validity_description>  (719) 
None

>  <activity_id>  (719) 
16386295

>  <standard_type>  (719) 
IC50

>  <target_chembl_id>  (719) 
CHEMBL1862

>  <data_validity_comment>  (719) 
None

>  <published_value>  (719) 
900

>  <document_year>  (719) 
2015

>  <target_pref_name>  (719) 
Tyrosine-protein kinase ABL

>  <assay_chembl_id>  (719) 
CHEMBL3737992

>  <standard_relation>  (719) 
=

>  <assay_description>  (719) 
Inhibition of human wild-type Abl after 30 mins by phosphocellulose paper disk assay using 0.1 mM EAIYAAPFAKKK peptide substrate

>  <published_relation>  (719) 
=

>  <standard_value>  (719) 
900

>  <qudt_units>  (719) 
http://www.openphacts.org/units/Nanomolar

>  <target_tax_id>  (719) 
9606

>  <bao_label>  (719) 
None

>  <published_units>  (719) 
nM

>  <pchembl_value>  (719) 
6.05

>  <published_type>  (719) 
IC50

>  <activity_comment>  (719) 
None

$$$$

     RDKit          

 23 25  0  0  0  0  0  0  0  0999 V2000
    0.0000    0.0000    0.0000 C   0  0  0  0  0  0  0  0  0  0  0  0
    0.0000    0.0000    0.0000 O   0  0  0  0  0  0  0  0  0  0  0  0
    0.0000    0.0000    0.0000 C   0  0  0  0  0  0  0  0  0  0  0  0
    0.0000    0.0000    0.0000 C   0  0  0  0  0  0  0  0  0  0  0  0
    0.0000    0.0000    0.0000 C   0  0  0  0  0  0  0  0  0  0  0  0
    0.0000    0.0000    0.0000 C   0  0  0  0  0  0  0  0  0  0  0  0
    0.0000    0.0000    0.0000 C   0  0  0  0  0  0  0  0  0  0  0  0
    0.0000    0.0000    0.0000 C   0  0  0  0  0  0  0  0  0  0  0  0
    0.0000    0.0000    0.0000 C   0  0  0  0  0  0  0  0  0  0  0  0
    0.0000    0.0000    0.0000 C   0  0  0  0  0  0  0  0  0  0  0  0
    0.0000    0.0000    0.0000 C   0  0  0  0  0  0  0  0  0  0  0  0
    0.0000    0.0000    0.0000 N   0  0  0  0  0  0  0  0  0  0  0  0
    0.0000    0.0000    0.0000 N   0  0  0  0  0  0  0  0  0  0  0  0
    0.0000    0.0000    0.0000 C   0  0  0  0  0  0  0  0  0  0  0  0
    0.0000    0.0000    0.0000 C   0  0  0  0  0  0  0  0  0  0  0  0
    0.0000    0.0000    0.0000 C   0  0  0  0  0  0  0  0  0  0  0  0
    0.0000    0.0000    0.0000 C   0  0  0  0  0  0  0  0  0  0  0  0
    0.0000    0.0000    0.0000 N   0  0  0  0  0  0  0  0  0  0  0  0
    0.0000    0.0000    0.0000 C   0  0  0  0  0  0  0  0  0  0  0  0
    0.0000    0.0000    0.0000 N   0  0  0  0  0  0  0  0  0  0  0  0
    0.0000    0.0000    0.0000 C   0  0  0  0  0  0  0  0  0  0  0  0
    0.0000    0.0000    0.0000 N   0  0  0  0  0  0  0  0  0  0  0  0
    0.0000    0.0000    0.0000 C   0  0  0  0  0  0  0  0  0  0  0  0
  1  2  1  0
  2  3  1  0
  3  4  2  0
  4  5  1  0
  5  6  2  0
  6  7  1  0
  7  8  2  0
  7  9  1  0
  9 10  3  0
 10 11  1  0
 11 12  2  0
 12 13  1  0
 13 14  1  0
 14 15  1  0
 14 16  1  0
 13 17  1  0
 17 18  2  0
 18 19  1  0
 19 20  2  0
 20 21  1  0
 21 22  1  0
 21 23  2  0
  8  3  1  0
 23 11  1  0
 23 17  1  0
M  END
>  <pIC50>  (720) 
5.56

>  <ChEMBL_ID>  (720) 
CHEMBL3734967

>  <document_journal>  (720) 
J. Med. Chem.

>  <bao_endpoint>  (720) 
BAO_0000190

>  <potential_duplicate>  (720) 
None

>  <uo_units>  (720) 
UO_0000065

>  <canonical_smiles>  (720) 
COc1cccc(c1)C#Cc2nn(C(C)C)c3ncnc(N)c23

>  <parent_molecule_chembl_id>  (720) 
CHEMBL3734967

>  <assay_type>  (720) 
B

>  <src_id>  (720) 
1

>  <ligand_efficiency>  (720) 
None

>  <standard_flag>  (720) 
True

>  <molecule_chembl_id>  (720) 
CHEMBL3734967

>  <target_organism>  (720) 
Homo sapiens

>  <standard_units>  (720) 
nM

>  <record_id>  (720) 
2735477

>  <document_chembl_id>  (720) 
CHEMBL3734755

>  <bao_format>  (720) 
None

>  <data_validity_description>  (720) 
None

>  <activity_id>  (720) 
16386297

>  <standard_type>  (720) 
IC50

>  <target_chembl_id>  (720) 
CHEMBL1862

>  <data_validity_comment>  (720) 
None

>  <published_value>  (720) 
2800

>  <document_year>  (720) 
2015

>  <target_pref_name>  (720) 
Tyrosine-protein kinase ABL

>  <assay_chembl_id>  (720) 
CHEMBL3737992

>  <standard_relation>  (720) 
=

>  <assay_description>  (720) 
Inhibition of human wild-type Abl after 30 mins by phosphocellulose paper disk assay using 0.1 mM EAIYAAPFAKKK peptide substrate

>  <published_relation>  (720) 
=

>  <standard_value>  (720) 
2800

>  <qudt_units>  (720) 
http://www.openphacts.org/units/Nanomolar

>  <target_tax_id>  (720) 
9606

>  <bao_label>  (720) 
None

>  <published_units>  (720) 
nM

>  <pchembl_value>  (720) 
5.55

>  <published_type>  (720) 
IC50

>  <activity_comment>  (720) 
None

$$$$

     RDKit          

 23 25  0  0  0  0  0  0  0  0999 V2000
    0.0000    0.0000    0.0000 C   0  0  0  0  0  0  0  0  0  0  0  0
    0.0000    0.0000    0.0000 O   0  0  0  0  0  0  0  0  0  0  0  0
    0.0000    0.0000    0.0000 C   0  0  0  0  0  0  0  0  0  0  0  0
    0.0000    0.0000    0.0000 C   0  0  0  0  0  0  0  0  0  0  0  0
    0.0000    0.0000    0.0000 C   0  0  0  0  0  0  0  0  0  0  0  0
    0.0000    0.0000    0.0000 C   0  0  0  0  0  0  0  0  0  0  0  0
    0.0000    0.0000    0.0000 C   0  0  0  0  0  0  0  0  0  0  0  0
    0.0000    0.0000    0.0000 C   0  0  0  0  0  0  0  0  0  0  0  0
    0.0000    0.0000    0.0000 C   0  0  0  0  0  0  0  0  0  0  0  0
    0.0000    0.0000    0.0000 C   0  0  0  0  0  0  0  0  0  0  0  0
    0.0000    0.0000    0.0000 C   0  0  0  0  0  0  0  0  0  0  0  0
    0.0000    0.0000    0.0000 N   0  0  0  0  0  0  0  0  0  0  0  0
    0.0000    0.0000    0.0000 N   0  0  0  0  0  0  0  0  0  0  0  0
    0.0000    0.0000    0.0000 C   0  0  0  0  0  0  0  0  0  0  0  0
    0.0000    0.0000    0.0000 C   0  0  0  0  0  0  0  0  0  0  0  0
    0.0000    0.0000    0.0000 C   0  0  0  0  0  0  0  0  0  0  0  0
    0.0000    0.0000    0.0000 C   0  0  0  0  0  0  0  0  0  0  0  0
    0.0000    0.0000    0.0000 N   0  0  0  0  0  0  0  0  0  0  0  0
    0.0000    0.0000    0.0000 C   0  0  0  0  0  0  0  0  0  0  0  0
    0.0000    0.0000    0.0000 N   0  0  0  0  0  0  0  0  0  0  0  0
    0.0000    0.0000    0.0000 C   0  0  0  0  0  0  0  0  0  0  0  0
    0.0000    0.0000    0.0000 N   0  0  0  0  0  0  0  0  0  0  0  0
    0.0000    0.0000    0.0000 C   0  0  0  0  0  0  0  0  0  0  0  0
  1  2  1  0
  2  3  1  0
  3  4  2  0
  4  5  1  0
  5  6  2  0
  6  7  1  0
  7  8  2  0
  6  9  1  0
  9 10  3  0
 10 11  1  0
 11 12  2  0
 12 13  1  0
 13 14  1  0
 14 15  1  0
 14 16  1  0
 13 17  1  0
 17 18  2  0
 18 19  1  0
 19 20  2  0
 20 21  1  0
 21 22  1  0
 21 23  2  0
  8  3  1  0
 23 11  1  0
 23 17  1  0
M  END
>  <pIC50>  (721) 
5.73

>  <ChEMBL_ID>  (721) 
CHEMBL3734907

>  <document_journal>  (721) 
J. Med. Chem.

>  <bao_endpoint>  (721) 
BAO_0000190

>  <potential_duplicate>  (721) 
None

>  <uo_units>  (721) 
UO_0000065

>  <canonical_smiles>  (721) 
COc1ccc(cc1)C#Cc2nn(C(C)C)c3ncnc(N)c23

>  <parent_molecule_chembl_id>  (721) 
CHEMBL3734907

>  <assay_type>  (721) 
B

>  <src_id>  (721) 
1

>  <ligand_efficiency>  (721) 
None

>  <standard_flag>  (721) 
True

>  <molecule_chembl_id>  (721) 
CHEMBL3734907

>  <target_organism>  (721) 
Homo sapiens

>  <standard_units>  (721) 
nM

>  <record_id>  (721) 
2735478

>  <document_chembl_id>  (721) 
CHEMBL3734755

>  <bao_format>  (721) 
None

>  <data_validity_description>  (721) 
None

>  <activity_id>  (721) 
16386298

>  <standard_type>  (721) 
IC50

>  <target_chembl_id>  (721) 
CHEMBL1862

>  <data_validity_comment>  (721) 
None

>  <published_value>  (721) 
970

>  <document_year>  (721) 
2015

>  <target_pref_name>  (721) 
Tyrosine-protein kinase ABL

>  <assay_chembl_id>  (721) 
CHEMBL3737992

>  <standard_relation>  (721) 
=

>  <assay_description>  (721) 
Inhibition of human wild-type Abl after 30 mins by phosphocellulose paper disk assay using 0.1 mM EAIYAAPFAKKK peptide substrate

>  <published_relation>  (721) 
=

>  <standard_value>  (721) 
970

>  <qudt_units>  (721) 
http://www.openphacts.org/units/Nanomolar

>  <target_tax_id>  (721) 
9606

>  <bao_label>  (721) 
None

>  <published_units>  (721) 
nM

>  <pchembl_value>  (721) 
6.01

>  <published_type>  (721) 
IC50

>  <activity_comment>  (721) 
None

$$$$

     RDKit          

 23 25  0  0  0  0  0  0  0  0999 V2000
    0.0000    0.0000    0.0000 C   0  0  0  0  0  0  0  0  0  0  0  0
    0.0000    0.0000    0.0000 O   0  0  0  0  0  0  0  0  0  0  0  0
    0.0000    0.0000    0.0000 C   0  0  0  0  0  0  0  0  0  0  0  0
    0.0000    0.0000    0.0000 C   0  0  0  0  0  0  0  0  0  0  0  0
    0.0000    0.0000    0.0000 C   0  0  0  0  0  0  0  0  0  0  0  0
    0.0000    0.0000    0.0000 C   0  0  0  0  0  0  0  0  0  0  0  0
    0.0000    0.0000    0.0000 C   0  0  0  0  0  0  0  0  0  0  0  0
    0.0000    0.0000    0.0000 C   0  0  0  0  0  0  0  0  0  0  0  0
    0.0000    0.0000    0.0000 C   0  0  0  0  0  0  0  0  0  0  0  0
    0.0000    0.0000    0.0000 C   0  0  0  0  0  0  0  0  0  0  0  0
    0.0000    0.0000    0.0000 C   0  0  0  0  0  0  0  0  0  0  0  0
    0.0000    0.0000    0.0000 N   0  0  0  0  0  0  0  0  0  0  0  0
    0.0000    0.0000    0.0000 N   0  0  0  0  0  0  0  0  0  0  0  0
    0.0000    0.0000    0.0000 C   0  0  0  0  0  0  0  0  0  0  0  0
    0.0000    0.0000    0.0000 C   0  0  0  0  0  0  0  0  0  0  0  0
    0.0000    0.0000    0.0000 C   0  0  0  0  0  0  0  0  0  0  0  0
    0.0000    0.0000    0.0000 C   0  0  0  0  0  0  0  0  0  0  0  0
    0.0000    0.0000    0.0000 N   0  0  0  0  0  0  0  0  0  0  0  0
    0.0000    0.0000    0.0000 C   0  0  0  0  0  0  0  0  0  0  0  0
    0.0000    0.0000    0.0000 N   0  0  0  0  0  0  0  0  0  0  0  0
    0.0000    0.0000    0.0000 C   0  0  0  0  0  0  0  0  0  0  0  0
    0.0000    0.0000    0.0000 N   0  0  0  0  0  0  0  0  0  0  0  0
    0.0000    0.0000    0.0000 C   0  0  0  0  0  0  0  0  0  0  0  0
  1  2  1  0
  2  3  1  0
  3  4  2  0
  4  5  1  0
  5  6  2  0
  6  7  1  0
  7  8  2  0
  8  9  1  0
  9 10  3  0
 10 11  1  0
 11 12  2  0
 12 13  1  0
 13 14  1  0
 14 15  1  0
 14 16  1  0
 13 17  1  0
 17 18  2  0
 18 19  1  0
 19 20  2  0
 20 21  1  0
 21 22  1  0
 21 23  2  0
  8  3  1  0
 23 11  1  0
 23 17  1  0
M  END
>  <pIC50>  (722) 
6.28

>  <ChEMBL_ID>  (722) 
CHEMBL3735576

>  <document_journal>  (722) 
J. Med. Chem.

>  <bao_endpoint>  (722) 
BAO_0000190

>  <potential_duplicate>  (722) 
None

>  <uo_units>  (722) 
UO_0000065

>  <canonical_smiles>  (722) 
COc1ccccc1C#Cc2nn(C(C)C)c3ncnc(N)c23

>  <parent_molecule_chembl_id>  (722) 
CHEMBL3735576

>  <assay_type>  (722) 
B

>  <src_id>  (722) 
1

>  <ligand_efficiency>  (722) 
None

>  <standard_flag>  (722) 
True

>  <molecule_chembl_id>  (722) 
CHEMBL3735576

>  <target_organism>  (722) 
Homo sapiens

>  <standard_units>  (722) 
nM

>  <record_id>  (722) 
2735479

>  <document_chembl_id>  (722) 
CHEMBL3734755

>  <bao_format>  (722) 
None

>  <data_validity_description>  (722) 
None

>  <activity_id>  (722) 
16386299

>  <standard_type>  (722) 
IC50

>  <target_chembl_id>  (722) 
CHEMBL1862

>  <data_validity_comment>  (722) 
None

>  <published_value>  (722) 
270

>  <document_year>  (722) 
2015

>  <target_pref_name>  (722) 
Tyrosine-protein kinase ABL

>  <assay_chembl_id>  (722) 
CHEMBL3737992

>  <standard_relation>  (722) 
=

>  <assay_description>  (722) 
Inhibition of human wild-type Abl after 30 mins by phosphocellulose paper disk assay using 0.1 mM EAIYAAPFAKKK peptide substrate

>  <published_relation>  (722) 
=

>  <standard_value>  (722) 
270

>  <qudt_units>  (722) 
http://www.openphacts.org/units/Nanomolar

>  <target_tax_id>  (722) 
9606

>  <bao_label>  (722) 
None

>  <published_units>  (722) 
nM

>  <pchembl_value>  (722) 
6.57

>  <published_type>  (722) 
IC50

>  <activity_comment>  (722) 
None

$$$$

     RDKit          

 22 24  0  0  0  0  0  0  0  0999 V2000
    0.0000    0.0000    0.0000 C   0  0  0  0  0  0  0  0  0  0  0  0
    0.0000    0.0000    0.0000 C   0  0  0  0  0  0  0  0  0  0  0  0
    0.0000    0.0000    0.0000 C   0  0  0  0  0  0  0  0  0  0  0  0
    0.0000    0.0000    0.0000 N   0  0  0  0  0  0  0  0  0  0  0  0
    0.0000    0.0000    0.0000 N   0  0  0  0  0  0  0  0  0  0  0  0
    0.0000    0.0000    0.0000 C   0  0  0  0  0  0  0  0  0  0  0  0
    0.0000    0.0000    0.0000 C   0  0  0  0  0  0  0  0  0  0  0  0
    0.0000    0.0000    0.0000 C   0  0  0  0  0  0  0  0  0  0  0  0
    0.0000    0.0000    0.0000 C   0  0  0  0  0  0  0  0  0  0  0  0
    0.0000    0.0000    0.0000 C   0  0  0  0  0  0  0  0  0  0  0  0
    0.0000    0.0000    0.0000 C   0  0  0  0  0  0  0  0  0  0  0  0
    0.0000    0.0000    0.0000 C   0  0  0  0  0  0  0  0  0  0  0  0
    0.0000    0.0000    0.0000 O   0  0  0  0  0  0  0  0  0  0  0  0
    0.0000    0.0000    0.0000 C   0  0  0  0  0  0  0  0  0  0  0  0
    0.0000    0.0000    0.0000 C   0  0  0  0  0  0  0  0  0  0  0  0
    0.0000    0.0000    0.0000 C   0  0  0  0  0  0  0  0  0  0  0  0
    0.0000    0.0000    0.0000 C   0  0  0  0  0  0  0  0  0  0  0  0
    0.0000    0.0000    0.0000 N   0  0  0  0  0  0  0  0  0  0  0  0
    0.0000    0.0000    0.0000 N   0  0  0  0  0  0  0  0  0  0  0  0
    0.0000    0.0000    0.0000 C   0  0  0  0  0  0  0  0  0  0  0  0
    0.0000    0.0000    0.0000 N   0  0  0  0  0  0  0  0  0  0  0  0
    0.0000    0.0000    0.0000 C   0  0  0  0  0  0  0  0  0  0  0  0
  1  2  1  0
  2  3  1  0
  2  4  1  0
  4  5  1  0
  5  6  2  0
  6  7  1  0
  7  8  3  0
  8  9  1  0
  9 10  2  0
 10 11  1  0
 11 12  2  0
 12 13  1  0
 12 14  1  0
 14 15  2  0
  6 16  1  0
 16 17  2  0
 17 18  1  0
 17 19  1  0
 19 20  2  0
 20 21  1  0
 21 22  2  0
 22  4  1  0
 15  9  1  0
 22 16  1  0
M  END
>  <pIC50>  (723) 
7.47

>  <ChEMBL_ID>  (723) 
CHEMBL3736466

>  <document_journal>  (723) 
J. Med. Chem.

>  <bao_endpoint>  (723) 
BAO_0000190

>  <potential_duplicate>  (723) 
None

>  <uo_units>  (723) 
UO_0000065

>  <canonical_smiles>  (723) 
CC(C)n1nc(C#Cc2ccc(O)cc2)c3c(N)ncnc13

>  <parent_molecule_chembl_id>  (723) 
CHEMBL3736466

>  <assay_type>  (723) 
B

>  <src_id>  (723) 
1

>  <ligand_efficiency>  (723) 
None

>  <standard_flag>  (723) 
True

>  <molecule_chembl_id>  (723) 
CHEMBL3736466

>  <target_organism>  (723) 
Homo sapiens

>  <standard_units>  (723) 
nM

>  <record_id>  (723) 
2735480

>  <document_chembl_id>  (723) 
CHEMBL3734755

>  <bao_format>  (723) 
None

>  <data_validity_description>  (723) 
None

>  <activity_id>  (723) 
16386300

>  <standard_type>  (723) 
IC50

>  <target_chembl_id>  (723) 
CHEMBL1862

>  <data_validity_comment>  (723) 
None

>  <published_value>  (723) 
57

>  <document_year>  (723) 
2015

>  <target_pref_name>  (723) 
Tyrosine-protein kinase ABL

>  <assay_chembl_id>  (723) 
CHEMBL3737992

>  <standard_relation>  (723) 
=

>  <assay_description>  (723) 
Inhibition of human wild-type Abl after 30 mins by phosphocellulose paper disk assay using 0.1 mM EAIYAAPFAKKK peptide substrate

>  <published_relation>  (723) 
=

>  <standard_value>  (723) 
57

>  <qudt_units>  (723) 
http://www.openphacts.org/units/Nanomolar

>  <target_tax_id>  (723) 
9606

>  <bao_label>  (723) 
None

>  <published_units>  (723) 
nM

>  <pchembl_value>  (723) 
7.24

>  <published_type>  (723) 
IC50

>  <activity_comment>  (723) 
None

$$$$

     RDKit          

 22 24  0  0  0  0  0  0  0  0999 V2000
    0.0000    0.0000    0.0000 C   0  0  0  0  0  0  0  0  0  0  0  0
    0.0000    0.0000    0.0000 C   0  0  0  0  0  0  0  0  0  0  0  0
    0.0000    0.0000    0.0000 C   0  0  0  0  0  0  0  0  0  0  0  0
    0.0000    0.0000    0.0000 N   0  0  0  0  0  0  0  0  0  0  0  0
    0.0000    0.0000    0.0000 N   0  0  0  0  0  0  0  0  0  0  0  0
    0.0000    0.0000    0.0000 C   0  0  0  0  0  0  0  0  0  0  0  0
    0.0000    0.0000    0.0000 C   0  0  0  0  0  0  0  0  0  0  0  0
    0.0000    0.0000    0.0000 C   0  0  0  0  0  0  0  0  0  0  0  0
    0.0000    0.0000    0.0000 C   0  0  0  0  0  0  0  0  0  0  0  0
    0.0000    0.0000    0.0000 C   0  0  0  0  0  0  0  0  0  0  0  0
    0.0000    0.0000    0.0000 C   0  0  0  0  0  0  0  0  0  0  0  0
    0.0000    0.0000    0.0000 C   0  0  0  0  0  0  0  0  0  0  0  0
    0.0000    0.0000    0.0000 C   0  0  0  0  0  0  0  0  0  0  0  0
    0.0000    0.0000    0.0000 C   0  0  0  0  0  0  0  0  0  0  0  0
    0.0000    0.0000    0.0000 O   0  0  0  0  0  0  0  0  0  0  0  0
    0.0000    0.0000    0.0000 C   0  0  0  0  0  0  0  0  0  0  0  0
    0.0000    0.0000    0.0000 C   0  0  0  0  0  0  0  0  0  0  0  0
    0.0000    0.0000    0.0000 N   0  0  0  0  0  0  0  0  0  0  0  0
    0.0000    0.0000    0.0000 N   0  0  0  0  0  0  0  0  0  0  0  0
    0.0000    0.0000    0.0000 C   0  0  0  0  0  0  0  0  0  0  0  0
    0.0000    0.0000    0.0000 N   0  0  0  0  0  0  0  0  0  0  0  0
    0.0000    0.0000    0.0000 C   0  0  0  0  0  0  0  0  0  0  0  0
  1  2  1  0
  2  3  1  0
  2  4  1  0
  4  5  1  0
  5  6  2  0
  6  7  1  0
  7  8  3  0
  8  9  1  0
  9 10  2  0
 10 11  1  0
 11 12  2  0
 12 13  1  0
 13 14  2  0
 14 15  1  0
  6 16  1  0
 16 17  2  0
 17 18  1  0
 17 19  1  0
 19 20  2  0
 20 21  1  0
 21 22  2  0
 22  4  1  0
 14  9  1  0
 22 16  1  0
M  END
>  <pIC50>  (724) 
6.14

>  <ChEMBL_ID>  (724) 
CHEMBL3736306

>  <document_journal>  (724) 
J. Med. Chem.

>  <bao_endpoint>  (724) 
BAO_0000190

>  <potential_duplicate>  (724) 
None

>  <uo_units>  (724) 
UO_0000065

>  <canonical_smiles>  (724) 
CC(C)n1nc(C#Cc2ccccc2O)c3c(N)ncnc13

>  <parent_molecule_chembl_id>  (724) 
CHEMBL3736306

>  <assay_type>  (724) 
B

>  <src_id>  (724) 
1

>  <ligand_efficiency>  (724) 
None

>  <standard_flag>  (724) 
True

>  <molecule_chembl_id>  (724) 
CHEMBL3736306

>  <target_organism>  (724) 
Homo sapiens

>  <standard_units>  (724) 
nM

>  <record_id>  (724) 
2735481

>  <document_chembl_id>  (724) 
CHEMBL3734755

>  <bao_format>  (724) 
None

>  <data_validity_description>  (724) 
None

>  <activity_id>  (724) 
16386301

>  <standard_type>  (724) 
IC50

>  <target_chembl_id>  (724) 
CHEMBL1862

>  <data_validity_comment>  (724) 
None

>  <published_value>  (724) 
570

>  <document_year>  (724) 
2015

>  <target_pref_name>  (724) 
Tyrosine-protein kinase ABL

>  <assay_chembl_id>  (724) 
CHEMBL3737992

>  <standard_relation>  (724) 
=

>  <assay_description>  (724) 
Inhibition of human wild-type Abl after 30 mins by phosphocellulose paper disk assay using 0.1 mM EAIYAAPFAKKK peptide substrate

>  <published_relation>  (724) 
=

>  <standard_value>  (724) 
570

>  <qudt_units>  (724) 
http://www.openphacts.org/units/Nanomolar

>  <target_tax_id>  (724) 
9606

>  <bao_label>  (724) 
None

>  <published_units>  (724) 
nM

>  <pchembl_value>  (724) 
6.24

>  <published_type>  (724) 
IC50

>  <activity_comment>  (724) 
None

$$$$

     RDKit          

 22 24  0  0  0  0  0  0  0  0999 V2000
    0.0000    0.0000    0.0000 C   0  0  0  0  0  0  0  0  0  0  0  0
    0.0000    0.0000    0.0000 C   0  0  0  0  0  0  0  0  0  0  0  0
    0.0000    0.0000    0.0000 C   0  0  0  0  0  0  0  0  0  0  0  0
    0.0000    0.0000    0.0000 N   0  0  0  0  0  0  0  0  0  0  0  0
    0.0000    0.0000    0.0000 N   0  0  0  0  0  0  0  0  0  0  0  0
    0.0000    0.0000    0.0000 C   0  0  0  0  0  0  0  0  0  0  0  0
    0.0000    0.0000    0.0000 C   0  0  0  0  0  0  0  0  0  0  0  0
    0.0000    0.0000    0.0000 C   0  0  0  0  0  0  0  0  0  0  0  0
    0.0000    0.0000    0.0000 C   0  0  0  0  0  0  0  0  0  0  0  0
    0.0000    0.0000    0.0000 C   0  0  0  0  0  0  0  0  0  0  0  0
    0.0000    0.0000    0.0000 C   0  0  0  0  0  0  0  0  0  0  0  0
    0.0000    0.0000    0.0000 C   0  0  0  0  0  0  0  0  0  0  0  0
    0.0000    0.0000    0.0000 C   0  0  0  0  0  0  0  0  0  0  0  0
    0.0000    0.0000    0.0000 O   0  0  0  0  0  0  0  0  0  0  0  0
    0.0000    0.0000    0.0000 C   0  0  0  0  0  0  0  0  0  0  0  0
    0.0000    0.0000    0.0000 C   0  0  0  0  0  0  0  0  0  0  0  0
    0.0000    0.0000    0.0000 C   0  0  0  0  0  0  0  0  0  0  0  0
    0.0000    0.0000    0.0000 N   0  0  0  0  0  0  0  0  0  0  0  0
    0.0000    0.0000    0.0000 N   0  0  0  0  0  0  0  0  0  0  0  0
    0.0000    0.0000    0.0000 C   0  0  0  0  0  0  0  0  0  0  0  0
    0.0000    0.0000    0.0000 N   0  0  0  0  0  0  0  0  0  0  0  0
    0.0000    0.0000    0.0000 C   0  0  0  0  0  0  0  0  0  0  0  0
  1  2  1  0
  2  3  1  0
  2  4  1  0
  4  5  1  0
  5  6  2  0
  6  7  1  0
  7  8  2  0
  8  9  1  0
  9 10  2  0
 10 11  1  0
 11 12  2  0
 12 13  1  0
 13 14  1  0
 13 15  2  0
  6 16  1  0
 16 17  2  0
 17 18  1  0
 17 19  1  0
 19 20  2  0
 20 21  1  0
 21 22  2  0
 22  4  1  0
 15  9  1  0
 22 16  1  0
M  END
>  <pIC50>  (725) 
8.145

>  <ChEMBL_ID>  (725) 
CHEMBL3735312

>  <document_journal>  (725) 
J. Med. Chem.

>  <bao_endpoint>  (725) 
BAO_0000190

>  <potential_duplicate>  (725) 
None

>  <uo_units>  (725) 
UO_0000065

>  <canonical_smiles>  (725) 
CC(C)n1nc(\C=C\c2cccc(O)c2)c3c(N)ncnc13

>  <parent_molecule_chembl_id>  (725) 
CHEMBL3735312

>  <assay_type>  (725) 
B

>  <src_id>  (725) 
1

>  <ligand_efficiency>  (725) 
None

>  <standard_flag>  (725) 
True

>  <molecule_chembl_id>  (725) 
CHEMBL3735312

>  <target_organism>  (725) 
Homo sapiens

>  <standard_units>  (725) 
nM

>  <record_id>  (725) 
2735482

>  <document_chembl_id>  (725) 
CHEMBL3734755

>  <bao_format>  (725) 
None

>  <data_validity_description>  (725) 
None

>  <activity_id>  (725) 
16386302

>  <standard_type>  (725) 
IC50

>  <target_chembl_id>  (725) 
CHEMBL1862

>  <data_validity_comment>  (725) 
None

>  <published_value>  (725) 
3

>  <document_year>  (725) 
2015

>  <target_pref_name>  (725) 
Tyrosine-protein kinase ABL

>  <assay_chembl_id>  (725) 
CHEMBL3737992

>  <standard_relation>  (725) 
=

>  <assay_description>  (725) 
Inhibition of human wild-type Abl after 30 mins by phosphocellulose paper disk assay using 0.1 mM EAIYAAPFAKKK peptide substrate

>  <published_relation>  (725) 
=

>  <standard_value>  (725) 
3

>  <qudt_units>  (725) 
http://www.openphacts.org/units/Nanomolar

>  <target_tax_id>  (725) 
9606

>  <bao_label>  (725) 
None

>  <published_units>  (725) 
nM

>  <pchembl_value>  (725) 
8.52

>  <published_type>  (725) 
IC50

>  <activity_comment>  (725) 
None

$$$$

     RDKit          

 34 37  0  0  0  0  0  0  0  0999 V2000
    0.0000    0.0000    0.0000 C   0  0  0  0  0  0  0  0  0  0  0  0
    0.0000    0.0000    0.0000 C   0  0  0  0  0  0  0  0  0  0  0  0
    0.0000    0.0000    0.0000 C   0  0  0  0  0  0  0  0  0  0  0  0
    0.0000    0.0000    0.0000 N   0  0  0  0  0  0  0  0  0  0  0  0
    0.0000    0.0000    0.0000 N   0  0  0  0  0  0  0  0  0  0  0  0
    0.0000    0.0000    0.0000 C   0  0  0  0  0  0  0  0  0  0  0  0
    0.0000    0.0000    0.0000 C   0  0  0  0  0  0  0  0  0  0  0  0
    0.0000    0.0000    0.0000 C   0  0  0  0  0  0  0  0  0  0  0  0
    0.0000    0.0000    0.0000 C   0  0  0  0  0  0  0  0  0  0  0  0
    0.0000    0.0000    0.0000 C   0  0  0  0  0  0  0  0  0  0  0  0
    0.0000    0.0000    0.0000 C   0  0  0  0  0  0  0  0  0  0  0  0
    0.0000    0.0000    0.0000 C   0  0  0  0  0  0  0  0  0  0  0  0
    0.0000    0.0000    0.0000 C   0  0  0  0  0  0  0  0  0  0  0  0
    0.0000    0.0000    0.0000 N   0  0  0  0  0  0  0  0  0  0  0  0
    0.0000    0.0000    0.0000 C   0  0  0  0  0  0  0  0  0  0  0  0
    0.0000    0.0000    0.0000 O   0  0  0  0  0  0  0  0  0  0  0  0
    0.0000    0.0000    0.0000 C   0  0  0  0  0  0  0  0  0  0  0  0
    0.0000    0.0000    0.0000 C   0  0  0  0  0  0  0  0  0  0  0  0
    0.0000    0.0000    0.0000 C   0  0  0  0  0  0  0  0  0  0  0  0
    0.0000    0.0000    0.0000 C   0  0  0  0  0  0  0  0  0  0  0  0
    0.0000    0.0000    0.0000 C   0  0  0  0  0  0  0  0  0  0  0  0
    0.0000    0.0000    0.0000 C   0  0  0  0  0  0  0  0  0  0  0  0
    0.0000    0.0000    0.0000 C   0  0  0  0  0  0  0  0  0  0  0  0
    0.0000    0.0000    0.0000 F   0  0  0  0  0  0  0  0  0  0  0  0
    0.0000    0.0000    0.0000 F   0  0  0  0  0  0  0  0  0  0  0  0
    0.0000    0.0000    0.0000 F   0  0  0  0  0  0  0  0  0  0  0  0
    0.0000    0.0000    0.0000 C   0  0  0  0  0  0  0  0  0  0  0  0
    0.0000    0.0000    0.0000 C   0  0  0  0  0  0  0  0  0  0  0  0
    0.0000    0.0000    0.0000 C   0  0  0  0  0  0  0  0  0  0  0  0
    0.0000    0.0000    0.0000 N   0  0  0  0  0  0  0  0  0  0  0  0
    0.0000    0.0000    0.0000 N   0  0  0  0  0  0  0  0  0  0  0  0
    0.0000    0.0000    0.0000 C   0  0  0  0  0  0  0  0  0  0  0  0
    0.0000    0.0000    0.0000 N   0  0  0  0  0  0  0  0  0  0  0  0
    0.0000    0.0000    0.0000 C   0  0  0  0  0  0  0  0  0  0  0  0
  1  2  1  0
  2  3  1  0
  2  4  1  0
  4  5  1  0
  5  6  2  0
  6  7  1  0
  7  8  3  0
  8  9  1  0
  9 10  2  0
 10 11  1  0
 11 12  2  0
 12 13  1  0
 13 14  1  0
 14 15  1  0
 15 16  2  0
 15 17  1  0
 17 18  2  0
 18 19  1  0
 19 20  2  0
 20 21  1  0
 21 22  2  0
 21 23  1  0
 23 24  1  0
 23 25  1  0
 23 26  1  0
 13 27  2  0
  6 28  1  0
 28 29  2  0
 29 30  1  0
 29 31  1  0
 31 32  2  0
 32 33  1  0
 33 34  2  0
 34  4  1  0
 27  9  1  0
 22 17  1  0
 34 28  1  0
M  END
>  <pIC50>  (726) 
9.16

>  <ChEMBL_ID>  (726) 
CHEMBL3736320

>  <document_journal>  (726) 
J. Med. Chem.

>  <bao_endpoint>  (726) 
BAO_0000190

>  <potential_duplicate>  (726) 
None

>  <uo_units>  (726) 
UO_0000065

>  <canonical_smiles>  (726) 
CC(C)n1nc(C#Cc2cccc(NC(=O)c3cccc(c3)C(F)(F)F)c2)c4c(N)ncnc14

>  <parent_molecule_chembl_id>  (726) 
CHEMBL3736320

>  <assay_type>  (726) 
B

>  <src_id>  (726) 
1

>  <ligand_efficiency>  (726) 
None

>  <standard_flag>  (726) 
True

>  <molecule_chembl_id>  (726) 
CHEMBL3736320

>  <target_organism>  (726) 
Homo sapiens

>  <standard_units>  (726) 
nM

>  <record_id>  (726) 
2735483

>  <document_chembl_id>  (726) 
CHEMBL3734755

>  <bao_format>  (726) 
None

>  <data_validity_description>  (726) 
None

>  <activity_id>  (726) 
16386303

>  <standard_type>  (726) 
IC50

>  <target_chembl_id>  (726) 
CHEMBL1862

>  <data_validity_comment>  (726) 
None

>  <published_value>  (726) 
0.6

>  <document_year>  (726) 
2015

>  <target_pref_name>  (726) 
Tyrosine-protein kinase ABL

>  <assay_chembl_id>  (726) 
CHEMBL3737992

>  <standard_relation>  (726) 
=

>  <assay_description>  (726) 
Inhibition of human wild-type Abl after 30 mins by phosphocellulose paper disk assay using 0.1 mM EAIYAAPFAKKK peptide substrate

>  <published_relation>  (726) 
=

>  <standard_value>  (726) 
0.6

>  <qudt_units>  (726) 
http://www.openphacts.org/units/Nanomolar

>  <target_tax_id>  (726) 
9606

>  <bao_label>  (726) 
None

>  <published_units>  (726) 
nM

>  <pchembl_value>  (726) 
9.22

>  <published_type>  (726) 
IC50

>  <activity_comment>  (726) 
None

$$$$

     RDKit          

 34 37  0  0  0  0  0  0  0  0999 V2000
    0.0000    0.0000    0.0000 C   0  0  0  0  0  0  0  0  0  0  0  0
    0.0000    0.0000    0.0000 C   0  0  0  0  0  0  0  0  0  0  0  0
    0.0000    0.0000    0.0000 C   0  0  0  0  0  0  0  0  0  0  0  0
    0.0000    0.0000    0.0000 N   0  0  0  0  0  0  0  0  0  0  0  0
    0.0000    0.0000    0.0000 N   0  0  0  0  0  0  0  0  0  0  0  0
    0.0000    0.0000    0.0000 C   0  0  0  0  0  0  0  0  0  0  0  0
    0.0000    0.0000    0.0000 C   0  0  0  0  0  0  0  0  0  0  0  0
    0.0000    0.0000    0.0000 C   0  0  0  0  0  0  0  0  0  0  0  0
    0.0000    0.0000    0.0000 C   0  0  0  0  0  0  0  0  0  0  0  0
    0.0000    0.0000    0.0000 C   0  0  0  0  0  0  0  0  0  0  0  0
    0.0000    0.0000    0.0000 C   0  0  0  0  0  0  0  0  0  0  0  0
    0.0000    0.0000    0.0000 C   0  0  0  0  0  0  0  0  0  0  0  0
    0.0000    0.0000    0.0000 C   0  0  0  0  0  0  0  0  0  0  0  0
    0.0000    0.0000    0.0000 C   0  0  0  0  0  0  0  0  0  0  0  0
    0.0000    0.0000    0.0000 C   0  0  0  0  0  0  0  0  0  0  0  0
    0.0000    0.0000    0.0000 O   0  0  0  0  0  0  0  0  0  0  0  0
    0.0000    0.0000    0.0000 N   0  0  0  0  0  0  0  0  0  0  0  0
    0.0000    0.0000    0.0000 C   0  0  0  0  0  0  0  0  0  0  0  0
    0.0000    0.0000    0.0000 C   0  0  0  0  0  0  0  0  0  0  0  0
    0.0000    0.0000    0.0000 C   0  0  0  0  0  0  0  0  0  0  0  0
    0.0000    0.0000    0.0000 C   0  0  0  0  0  0  0  0  0  0  0  0
    0.0000    0.0000    0.0000 C   0  0  0  0  0  0  0  0  0  0  0  0
    0.0000    0.0000    0.0000 C   0  0  0  0  0  0  0  0  0  0  0  0
    0.0000    0.0000    0.0000 C   0  0  0  0  0  0  0  0  0  0  0  0
    0.0000    0.0000    0.0000 F   0  0  0  0  0  0  0  0  0  0  0  0
    0.0000    0.0000    0.0000 F   0  0  0  0  0  0  0  0  0  0  0  0
    0.0000    0.0000    0.0000 F   0  0  0  0  0  0  0  0  0  0  0  0
    0.0000    0.0000    0.0000 C   0  0  0  0  0  0  0  0  0  0  0  0
    0.0000    0.0000    0.0000 C   0  0  0  0  0  0  0  0  0  0  0  0
    0.0000    0.0000    0.0000 N   0  0  0  0  0  0  0  0  0  0  0  0
    0.0000    0.0000    0.0000 N   0  0  0  0  0  0  0  0  0  0  0  0
    0.0000    0.0000    0.0000 C   0  0  0  0  0  0  0  0  0  0  0  0
    0.0000    0.0000    0.0000 N   0  0  0  0  0  0  0  0  0  0  0  0
    0.0000    0.0000    0.0000 C   0  0  0  0  0  0  0  0  0  0  0  0
  1  2  1  0
  2  3  1  0
  2  4  1  0
  4  5  1  0
  5  6  2  0
  6  7  1  0
  7  8  3  0
  8  9  1  0
  9 10  2  0
 10 11  1  0
 11 12  2  0
 12 13  1  0
 13 14  2  0
 13 15  1  0
 15 16  2  0
 15 17  1  0
 17 18  1  0
 18 19  2  0
 19 20  1  0
 20 21  2  0
 21 22  1  0
 22 23  2  0
 22 24  1  0
 24 25  1  0
 24 26  1  0
 24 27  1  0
  6 28  1  0
 28 29  2  0
 29 30  1  0
 29 31  1  0
 31 32  2  0
 32 33  1  0
 33 34  2  0
 34  4  1  0
 14  9  1  0
 23 18  1  0
 34 28  1  0
M  END
>  <pIC50>  (727) 
8.925

>  <ChEMBL_ID>  (727) 
CHEMBL3735207

>  <document_journal>  (727) 
J. Med. Chem.

>  <bao_endpoint>  (727) 
BAO_0000190

>  <potential_duplicate>  (727) 
None

>  <uo_units>  (727) 
UO_0000065

>  <canonical_smiles>  (727) 
CC(C)n1nc(C#Cc2cccc(c2)C(=O)Nc3cccc(c3)C(F)(F)F)c4c(N)ncnc14

>  <parent_molecule_chembl_id>  (727) 
CHEMBL3735207

>  <assay_type>  (727) 
B

>  <src_id>  (727) 
1

>  <ligand_efficiency>  (727) 
None

>  <standard_flag>  (727) 
True

>  <molecule_chembl_id>  (727) 
CHEMBL3735207

>  <target_organism>  (727) 
Homo sapiens

>  <standard_units>  (727) 
nM

>  <record_id>  (727) 
2735484

>  <document_chembl_id>  (727) 
CHEMBL3734755

>  <bao_format>  (727) 
None

>  <data_validity_description>  (727) 
None

>  <activity_id>  (727) 
16386304

>  <standard_type>  (727) 
IC50

>  <target_chembl_id>  (727) 
CHEMBL1862

>  <data_validity_comment>  (727) 
None

>  <published_value>  (727) 
1.1

>  <document_year>  (727) 
2015

>  <target_pref_name>  (727) 
Tyrosine-protein kinase ABL

>  <assay_chembl_id>  (727) 
CHEMBL3737992

>  <standard_relation>  (727) 
=

>  <assay_description>  (727) 
Inhibition of human wild-type Abl after 30 mins by phosphocellulose paper disk assay using 0.1 mM EAIYAAPFAKKK peptide substrate

>  <published_relation>  (727) 
=

>  <standard_value>  (727) 
1.1

>  <qudt_units>  (727) 
http://www.openphacts.org/units/Nanomolar

>  <target_tax_id>  (727) 
9606

>  <bao_label>  (727) 
None

>  <published_units>  (727) 
nM

>  <pchembl_value>  (727) 
8.96

>  <published_type>  (727) 
IC50

>  <activity_comment>  (727) 
None

$$$$

     RDKit          

 40 43  0  0  0  0  0  0  0  0999 V2000
    0.0000    0.0000    0.0000 C   0  0  0  0  0  0  0  0  0  0  0  0
    0.0000    0.0000    0.0000 N   0  0  0  0  0  0  0  0  0  0  0  0
    0.0000    0.0000    0.0000 C   0  0  0  0  0  0  0  0  0  0  0  0
    0.0000    0.0000    0.0000 N   0  0  0  0  0  0  0  0  0  0  0  0
    0.0000    0.0000    0.0000 C   0  0  0  0  0  0  0  0  0  0  0  0
    0.0000    0.0000    0.0000 N   0  0  0  0  0  0  0  0  0  0  0  0
    0.0000    0.0000    0.0000 C   0  0  0  0  0  0  0  0  0  0  0  0
    0.0000    0.0000    0.0000 C   0  0  0  0  0  0  0  0  0  0  0  0
    0.0000    0.0000    0.0000 C   0  0  0  0  0  0  0  0  0  0  0  0
    0.0000    0.0000    0.0000 C   0  0  0  0  0  0  0  0  0  0  0  0
    0.0000    0.0000    0.0000 C   0  0  0  0  0  0  0  0  0  0  0  0
    0.0000    0.0000    0.0000 C   0  0  0  0  0  0  0  0  0  0  0  0
    0.0000    0.0000    0.0000 N   0  0  0  0  0  0  0  0  0  0  0  0
    0.0000    0.0000    0.0000 C   0  0  0  0  0  0  0  0  0  0  0  0
    0.0000    0.0000    0.0000 N   0  0  0  0  0  0  0  0  0  0  0  0
    0.0000    0.0000    0.0000 C   0  0  0  0  0  0  0  0  0  0  0  0
    0.0000    0.0000    0.0000 C   0  0  0  0  0  0  0  0  0  0  0  0
    0.0000    0.0000    0.0000 C   0  0  0  0  0  0  0  0  0  0  0  0
    0.0000    0.0000    0.0000 O   0  0  0  0  0  0  0  0  0  0  0  0
    0.0000    0.0000    0.0000 N   0  0  0  0  0  0  0  0  0  0  0  0
    0.0000    0.0000    0.0000 C   0  0  0  0  0  0  0  0  0  0  0  0
    0.0000    0.0000    0.0000 C   0  0  0  0  0  0  0  0  0  0  0  0
    0.0000    0.0000    0.0000 C   0  0  0  0  0  0  0  0  0  0  0  0
    0.0000    0.0000    0.0000 N   0  0  0  0  0  0  0  0  0  0  0  0
    0.0000    0.0000    0.0000 C   0  0  0  0  0  0  0  0  0  0  0  0
    0.0000    0.0000    0.0000 O   0  0  0  0  0  0  0  0  0  0  0  0
    0.0000    0.0000    0.0000 C   0  0  0  0  0  0  0  0  0  0  0  0
    0.0000    0.0000    0.0000 C   0  0  0  0  0  0  0  0  0  0  0  0
    0.0000    0.0000    0.0000 C   0  0  0  0  0  0  0  0  0  0  0  0
    0.0000    0.0000    0.0000 C   0  0  0  0  0  0  0  0  0  0  0  0
    0.0000    0.0000    0.0000 C   0  0  0  0  0  0  0  0  0  0  0  0
    0.0000    0.0000    0.0000 C   0  0  0  0  0  0  0  0  0  0  0  0
    0.0000    0.0000    0.0000 C   0  0  0  0  0  0  0  0  0  0  0  0
    0.0000    0.0000    0.0000 F   0  0  0  0  0  0  0  0  0  0  0  0
    0.0000    0.0000    0.0000 F   0  0  0  0  0  0  0  0  0  0  0  0
    0.0000    0.0000    0.0000 F   0  0  0  0  0  0  0  0  0  0  0  0
    0.0000    0.0000    0.0000 C   0  0  0  0  0  0  0  0  0  0  0  0
    0.0000    0.0000    0.0000 C   0  0  0  0  0  0  0  0  0  0  0  0
    0.0000    0.0000    0.0000 C   0  0  0  0  0  0  0  0  0  0  0  0
    0.0000    0.0000    0.0000 C   0  0  0  0  0  0  0  0  0  0  0  0
  1  2  1  0
  2  3  1  0
  3  4  2  0
  4  5  1  0
  5  6  1  0
  6  7  1  0
  7  8  2  0
  8  9  1  0
  9 10  2  0
 10 11  1  0
 10 12  1  0
 12 13  1  0
 12 14  2  0
  5 15  2  0
 15 16  1  0
 16 17  2  0
 17 18  1  0
 18 19  2  0
 18 20  1  0
 20 21  1  0
 21 22  2  0
 22 23  1  0
 23 24  1  0
 24 25  1  0
 25 26  2  0
 25 27  1  0
 27 28  2  0
 28 29  1  0
 29 30  2  0
 30 31  1  0
 31 32  2  0
 31 33  1  0
 33 34  1  0
 33 35  1  0
 33 36  1  0
 23 37  2  0
 37 38  1  0
 38 39  2  0
 39 40  1  0
 17  3  1  0
 14  7  1  0
 39 21  1  0
 32 27  1  0
M  END
>  <pIC50>  (728) 
7.16

>  <ChEMBL_ID>  (728) 
CHEMBL3780219

>  <document_journal>  (728) 
J. Med. Chem.

>  <bao_endpoint>  (728) 
BAO_0000190

>  <potential_duplicate>  (728) 
None

>  <uo_units>  (728) 
UO_0000065

>  <canonical_smiles>  (728) 
CNc1nc(Nc2ccc(C)c(N)c2)ncc1C(=O)Nc3cc(NC(=O)c4cccc(c4)C(F)(F)F)ccc3C

>  <parent_molecule_chembl_id>  (728) 
CHEMBL3780219

>  <assay_type>  (728) 
B

>  <src_id>  (728) 
1

>  <ligand_efficiency>  (728) 
None

>  <standard_flag>  (728) 
True

>  <molecule_chembl_id>  (728) 
CHEMBL3780219

>  <target_organism>  (728) 
Homo sapiens

>  <standard_units>  (728) 
nM

>  <record_id>  (728) 
2764777

>  <document_chembl_id>  (728) 
CHEMBL3779840

>  <bao_format>  (728) 
None

>  <data_validity_description>  (728) 
None

>  <activity_id>  (728) 
16510436

>  <standard_type>  (728) 
IC50

>  <target_chembl_id>  (728) 
CHEMBL1862

>  <data_validity_comment>  (728) 
None

>  <published_value>  (728) 
70

>  <document_year>  (728) 
2016

>  <target_pref_name>  (728) 
Tyrosine-protein kinase ABL

>  <assay_chembl_id>  (728) 
CHEMBL3783995

>  <standard_relation>  (728) 
=

>  <assay_description>  (728) 
Inhibition of full length recombinant human ABL1 expressed in Baculovirus expression system

>  <published_relation>  (728) 
=

>  <standard_value>  (728) 
70

>  <qudt_units>  (728) 
http://www.openphacts.org/units/Nanomolar

>  <target_tax_id>  (728) 
9606

>  <bao_label>  (728) 
None

>  <published_units>  (728) 
nM

>  <pchembl_value>  (728) 
7.16

>  <published_type>  (728) 
IC50

>  <activity_comment>  (728) 
None

$$$$

     RDKit          

 28 31  0  0  0  0  0  0  0  0999 V2000
    0.0000    0.0000    0.0000 C   0  0  0  0  0  0  0  0  0  0  0  0
    0.0000    0.0000    0.0000 O   0  0  0  0  0  0  0  0  0  0  0  0
    0.0000    0.0000    0.0000 C   0  0  0  0  0  0  0  0  0  0  0  0
    0.0000    0.0000    0.0000 C   0  0  0  0  0  0  0  0  0  0  0  0
    0.0000    0.0000    0.0000 C   0  0  0  0  0  0  0  0  0  0  0  0
    0.0000    0.0000    0.0000 C   0  0  0  0  0  0  0  0  0  0  0  0
    0.0000    0.0000    0.0000 N   0  0  0  0  0  0  0  0  0  0  0  0
    0.0000    0.0000    0.0000 C   0  0  0  0  0  0  0  0  0  0  0  0
    0.0000    0.0000    0.0000 O   0  0  0  0  0  0  0  0  0  0  0  0
    0.0000    0.0000    0.0000 N   0  0  0  0  0  0  0  0  0  0  0  0
    0.0000    0.0000    0.0000 C   0  0  0  0  0  0  0  0  0  0  0  0
    0.0000    0.0000    0.0000 C   0  0  0  0  0  0  0  0  0  0  0  0
    0.0000    0.0000    0.0000 N   0  0  0  0  0  0  0  0  0  0  0  0
    0.0000    0.0000    0.0000 C   0  0  0  0  0  0  0  0  0  0  0  0
    0.0000    0.0000    0.0000 C   0  0  0  0  0  0  0  0  0  0  0  0
    0.0000    0.0000    0.0000 N   0  0  0  0  0  0  0  0  0  0  0  0
    0.0000    0.0000    0.0000 C   0  0  0  0  0  0  0  0  0  0  0  0
    0.0000    0.0000    0.0000 C   0  0  0  0  0  0  0  0  0  0  0  0
    0.0000    0.0000    0.0000 N   0  0  0  0  0  0  0  0  0  0  0  0
    0.0000    0.0000    0.0000 C   0  0  0  0  0  0  0  0  0  0  0  0
    0.0000    0.0000    0.0000 C   0  0  0  0  0  0  0  0  0  0  0  0
    0.0000    0.0000    0.0000 C   0  0  0  0  0  0  0  0  0  0  0  0
    0.0000    0.0000    0.0000 C   0  0  0  0  0  0  0  0  0  0  0  0
    0.0000    0.0000    0.0000 C   0  0  0  0  0  0  0  0  0  0  0  0
    0.0000    0.0000    0.0000 C   0  0  0  0  0  0  0  0  0  0  0  0
    0.0000    0.0000    0.0000 C   0  0  0  0  0  0  0  0  0  0  0  0
    0.0000    0.0000    0.0000 C   0  0  0  0  0  0  0  0  0  0  0  0
    0.0000    0.0000    0.0000 C   0  0  0  0  0  0  0  0  0  0  0  0
  1  2  1  0
  2  3  1  0
  3  4  2  0
  4  5  1  0
  5  6  2  0
  6  7  1  0
  7  8  1  0
  8  9  2  0
  8 10  1  0
 10 11  1  0
 11 12  2  0
 12 13  1  0
 13 14  2  0
 14 15  1  0
 15 16  2  0
 16 17  1  0
 17 18  2  0
 18 19  1  0
 19 20  2  0
 17 21  1  0
 21 22  2  0
 22 23  1  0
 23 24  2  0
 24 25  1  0
 25 26  2  0
  6 27  1  0
 27 28  2  0
 28  3  1  0
 20 11  1  0
 20 15  1  0
 26 21  1  0
M  END
>  <pIC50>  (729) 
4.6

>  <ChEMBL_ID>  (729) 
CHEMBL3781939

>  <document_journal>  (729) 
MedChemComm

>  <bao_endpoint>  (729) 
BAO_0000190

>  <potential_duplicate>  (729) 
None

>  <uo_units>  (729) 
UO_0000065

>  <canonical_smiles>  (729) 
COc1ccc(NC(=O)Nc2cncc3nc(cnc23)c4ccccc4)cc1

>  <parent_molecule_chembl_id>  (729) 
CHEMBL3781939

>  <assay_type>  (729) 
B

>  <src_id>  (729) 
1

>  <ligand_efficiency>  (729) 
None

>  <standard_flag>  (729) 
True

>  <molecule_chembl_id>  (729) 
CHEMBL3781939

>  <target_organism>  (729) 
Homo sapiens

>  <standard_units>  (729) 
nM

>  <record_id>  (729) 
2763680

>  <document_chembl_id>  (729) 
CHEMBL3779774

>  <bao_format>  (729) 
None

>  <data_validity_description>  (729) 
None

>  <activity_id>  (729) 
16517197

>  <standard_type>  (729) 
IC50

>  <target_chembl_id>  (729) 
CHEMBL1862

>  <data_validity_comment>  (729) 
None

>  <published_value>  (729) 
25.15

>  <document_year>  (729) 
2016

>  <target_pref_name>  (729) 
Tyrosine-protein kinase ABL

>  <assay_chembl_id>  (729) 
CHEMBL3784517

>  <standard_relation>  (729) 
=

>  <assay_description>  (729) 
Inhibition of recombinant c-Abl (unknown origin) after 1 hr by Alphascreen assay

>  <published_relation>  (729) 
=

>  <standard_value>  (729) 
25150

>  <qudt_units>  (729) 
http://www.openphacts.org/units/Nanomolar

>  <target_tax_id>  (729) 
9606

>  <bao_label>  (729) 
None

>  <published_units>  (729) 
uM

>  <pchembl_value>  (729) 
4.6

>  <published_type>  (729) 
IC50

>  <activity_comment>  (729) 
None

$$$$

     RDKit          

 29 33  0  0  0  0  0  0  0  0999 V2000
    0.0000    0.0000    0.0000 C   0  0  0  0  0  0  0  0  0  0  0  0
    0.0000    0.0000    0.0000 C   0  0  0  0  0  0  0  0  0  0  0  0
    0.0000    0.0000    0.0000 C   0  0  0  0  0  0  0  0  0  0  0  0
    0.0000    0.0000    0.0000 N   0  0  0  0  0  0  0  0  0  0  0  0
    0.0000    0.0000    0.0000 C   0  0  0  0  0  0  0  0  0  0  0  0
    0.0000    0.0000    0.0000 C   0  0  0  0  0  0  0  0  0  0  0  0
    0.0000    0.0000    0.0000 C   0  0  0  0  0  0  0  0  0  0  0  0
    0.0000    0.0000    0.0000 C   0  0  0  0  0  0  0  0  0  0  0  0
    0.0000    0.0000    0.0000 C   0  0  0  0  0  0  0  0  0  0  0  0
    0.0000    0.0000    0.0000 C   0  0  0  0  0  0  0  0  0  0  0  0
    0.0000    0.0000    0.0000 N   0  0  0  0  0  0  0  0  0  0  0  0
    0.0000    0.0000    0.0000 C   0  0  0  0  0  0  0  0  0  0  0  0
    0.0000    0.0000    0.0000 C   0  0  0  0  0  0  0  0  0  0  0  0
    0.0000    0.0000    0.0000 N   0  0  0  0  0  0  0  0  0  0  0  0
    0.0000    0.0000    0.0000 C   0  0  0  0  0  0  0  0  0  0  0  0
    0.0000    0.0000    0.0000 C   0  0  0  0  0  0  0  0  0  0  0  0
    0.0000    0.0000    0.0000 N   0  0  0  0  0  0  0  0  0  0  0  0
    0.0000    0.0000    0.0000 C   0  0  0  0  0  0  0  0  0  0  0  0
    0.0000    0.0000    0.0000 C   0  0  0  0  0  0  0  0  0  0  0  0
    0.0000    0.0000    0.0000 N   0  0  0  0  0  0  0  0  0  0  0  0
    0.0000    0.0000    0.0000 C   0  0  0  0  0  0  0  0  0  0  0  0
    0.0000    0.0000    0.0000 C   0  0  0  0  0  0  0  0  0  0  0  0
    0.0000    0.0000    0.0000 C   0  0  0  0  0  0  0  0  0  0  0  0
    0.0000    0.0000    0.0000 C   0  0  0  0  0  0  0  0  0  0  0  0
    0.0000    0.0000    0.0000 C   0  0  0  0  0  0  0  0  0  0  0  0
    0.0000    0.0000    0.0000 C   0  0  0  0  0  0  0  0  0  0  0  0
    0.0000    0.0000    0.0000 C   0  0  0  0  0  0  0  0  0  0  0  0
    0.0000    0.0000    0.0000 C   0  0  0  0  0  0  0  0  0  0  0  0
    0.0000    0.0000    0.0000 C   0  0  0  0  0  0  0  0  0  0  0  0
  1  2  1  0
  2  3  1  0
  3  4  1  0
  4  5  1  0
  5  6  1  0
  4  7  1  0
  7  8  2  0
  8  9  1  0
  9 10  2  0
 10 11  1  0
 11 12  1  0
 12 13  2  0
 13 14  1  0
 14 15  2  0
 15 16  1  0
 16 17  2  0
 17 18  1  0
 18 19  2  0
 19 20  1  0
 20 21  2  0
 18 22  1  0
 22 23  2  0
 23 24  1  0
 24 25  2  0
 25 26  1  0
 26 27  2  0
 10 28  1  0
 28 29  2  0
  6  1  1  0
 29  7  1  0
 21 12  1  0
 21 16  1  0
 27 22  1  0
M  END
>  <pIC50>  (730) 
5.6

>  <ChEMBL_ID>  (730) 
CHEMBL3781479

>  <document_journal>  (730) 
MedChemComm

>  <bao_endpoint>  (730) 
BAO_0000190

>  <potential_duplicate>  (730) 
None

>  <uo_units>  (730) 
UO_0000065

>  <canonical_smiles>  (730) 
C1CCN(CC1)c2ccc(Nc3cncc4nc(cnc34)c5ccccc5)cc2

>  <parent_molecule_chembl_id>  (730) 
CHEMBL3781479

>  <assay_type>  (730) 
B

>  <src_id>  (730) 
1

>  <ligand_efficiency>  (730) 
None

>  <standard_flag>  (730) 
True

>  <molecule_chembl_id>  (730) 
CHEMBL3781479

>  <target_organism>  (730) 
Homo sapiens

>  <standard_units>  (730) 
nM

>  <record_id>  (730) 
2763683

>  <document_chembl_id>  (730) 
CHEMBL3779774

>  <bao_format>  (730) 
None

>  <data_validity_description>  (730) 
None

>  <activity_id>  (730) 
16517200

>  <standard_type>  (730) 
IC50

>  <target_chembl_id>  (730) 
CHEMBL1862

>  <data_validity_comment>  (730) 
None

>  <published_value>  (730) 
2.54

>  <document_year>  (730) 
2016

>  <target_pref_name>  (730) 
Tyrosine-protein kinase ABL

>  <assay_chembl_id>  (730) 
CHEMBL3784517

>  <standard_relation>  (730) 
=

>  <assay_description>  (730) 
Inhibition of recombinant c-Abl (unknown origin) after 1 hr by Alphascreen assay

>  <published_relation>  (730) 
=

>  <standard_value>  (730) 
2540

>  <qudt_units>  (730) 
http://www.openphacts.org/units/Nanomolar

>  <target_tax_id>  (730) 
9606

>  <bao_label>  (730) 
None

>  <published_units>  (730) 
uM

>  <pchembl_value>  (730) 
5.6

>  <published_type>  (730) 
IC50

>  <activity_comment>  (730) 
None

$$$$

     RDKit          

 29 33  0  0  0  0  0  0  0  0999 V2000
    0.0000    0.0000    0.0000 C   0  0  0  0  0  0  0  0  0  0  0  0
    0.0000    0.0000    0.0000 C   0  0  0  0  0  0  0  0  0  0  0  0
    0.0000    0.0000    0.0000 C   0  0  0  0  0  0  0  0  0  0  0  0
    0.0000    0.0000    0.0000 N   0  0  0  0  0  0  0  0  0  0  0  0
    0.0000    0.0000    0.0000 C   0  0  0  0  0  0  0  0  0  0  0  0
    0.0000    0.0000    0.0000 C   0  0  0  0  0  0  0  0  0  0  0  0
    0.0000    0.0000    0.0000 C   0  0  0  0  0  0  0  0  0  0  0  0
    0.0000    0.0000    0.0000 C   0  0  0  0  0  0  0  0  0  0  0  0
    0.0000    0.0000    0.0000 C   0  0  0  0  0  0  0  0  0  0  0  0
    0.0000    0.0000    0.0000 C   0  0  0  0  0  0  0  0  0  0  0  0
    0.0000    0.0000    0.0000 C   0  0  0  0  0  0  0  0  0  0  0  0
    0.0000    0.0000    0.0000 C   0  0  0  0  0  0  0  0  0  0  0  0
    0.0000    0.0000    0.0000 C   0  0  0  0  0  0  0  0  0  0  0  0
    0.0000    0.0000    0.0000 C   0  0  0  0  0  0  0  0  0  0  0  0
    0.0000    0.0000    0.0000 N   0  0  0  0  0  0  0  0  0  0  0  0
    0.0000    0.0000    0.0000 C   0  0  0  0  0  0  0  0  0  0  0  0
    0.0000    0.0000    0.0000 C   0  0  0  0  0  0  0  0  0  0  0  0
    0.0000    0.0000    0.0000 N   0  0  0  0  0  0  0  0  0  0  0  0
    0.0000    0.0000    0.0000 C   0  0  0  0  0  0  0  0  0  0  0  0
    0.0000    0.0000    0.0000 C   0  0  0  0  0  0  0  0  0  0  0  0
    0.0000    0.0000    0.0000 C   0  0  0  0  0  0  0  0  0  0  0  0
    0.0000    0.0000    0.0000 C   0  0  0  0  0  0  0  0  0  0  0  0
    0.0000    0.0000    0.0000 C   0  0  0  0  0  0  0  0  0  0  0  0
    0.0000    0.0000    0.0000 C   0  0  0  0  0  0  0  0  0  0  0  0
    0.0000    0.0000    0.0000 C   0  0  0  0  0  0  0  0  0  0  0  0
    0.0000    0.0000    0.0000 N   0  0  0  0  0  0  0  0  0  0  0  0
    0.0000    0.0000    0.0000 C   0  0  0  0  0  0  0  0  0  0  0  0
    0.0000    0.0000    0.0000 C   0  0  0  0  0  0  0  0  0  0  0  0
    0.0000    0.0000    0.0000 N   0  0  0  0  0  0  0  0  0  0  0  0
  1  2  1  0
  2  3  1  0
  3  4  1  0
  4  5  1  0
  5  6  1  0
  4  7  1  0
  7  8  2  0
  8  9  1  0
  9 10  2  0
 10 11  1  0
 11 12  2  0
 10 13  1  0
 13 14  2  0
 14 15  1  0
 15 16  2  0
 16 17  1  0
 17 18  1  0
 18 19  1  0
 19 20  2  0
 20 21  1  0
 21 22  2  0
 22 23  1  0
 23 24  2  0
 17 25  2  0
 25 26  1  0
 26 27  2  0
 27 28  1  0
 28 29  2  0
  6  1  1  0
 12  7  1  0
 29 13  1  0
 28 16  1  0
 24 19  1  0
M  END
>  <pIC50>  (731) 
4.65

>  <ChEMBL_ID>  (731) 
CHEMBL3781538

>  <document_journal>  (731) 
MedChemComm

>  <bao_endpoint>  (731) 
BAO_0000190

>  <potential_duplicate>  (731) 
None

>  <uo_units>  (731) 
UO_0000065

>  <canonical_smiles>  (731) 
C1CCN(CC1)c2ccc(cc2)c3cnc4c(Nc5ccccc5)cncc4n3

>  <parent_molecule_chembl_id>  (731) 
CHEMBL3781538

>  <assay_type>  (731) 
B

>  <src_id>  (731) 
1

>  <ligand_efficiency>  (731) 
None

>  <standard_flag>  (731) 
True

>  <molecule_chembl_id>  (731) 
CHEMBL3781538

>  <target_organism>  (731) 
Homo sapiens

>  <standard_units>  (731) 
nM

>  <record_id>  (731) 
2763684

>  <document_chembl_id>  (731) 
CHEMBL3779774

>  <bao_format>  (731) 
None

>  <data_validity_description>  (731) 
None

>  <activity_id>  (731) 
16517201

>  <standard_type>  (731) 
IC50

>  <target_chembl_id>  (731) 
CHEMBL1862

>  <data_validity_comment>  (731) 
None

>  <published_value>  (731) 
22.52

>  <document_year>  (731) 
2016

>  <target_pref_name>  (731) 
Tyrosine-protein kinase ABL

>  <assay_chembl_id>  (731) 
CHEMBL3784517

>  <standard_relation>  (731) 
=

>  <assay_description>  (731) 
Inhibition of recombinant c-Abl (unknown origin) after 1 hr by Alphascreen assay

>  <published_relation>  (731) 
=

>  <standard_value>  (731) 
22520

>  <qudt_units>  (731) 
http://www.openphacts.org/units/Nanomolar

>  <target_tax_id>  (731) 
9606

>  <bao_label>  (731) 
None

>  <published_units>  (731) 
uM

>  <pchembl_value>  (731) 
4.65

>  <published_type>  (731) 
IC50

>  <activity_comment>  (731) 
None

$$$$

     RDKit          

 31 35  0  0  0  0  0  0  0  0999 V2000
    0.0000    0.0000    0.0000 C   0  0  0  0  0  0  0  0  0  0  0  0
    0.0000    0.0000    0.0000 O   0  0  0  0  0  0  0  0  0  0  0  0
    0.0000    0.0000    0.0000 C   0  0  0  0  0  0  0  0  0  0  0  0
    0.0000    0.0000    0.0000 C   0  0  0  0  0  0  0  0  0  0  0  0
    0.0000    0.0000    0.0000 C   0  0  0  0  0  0  0  0  0  0  0  0
    0.0000    0.0000    0.0000 C   0  0  0  0  0  0  0  0  0  0  0  0
    0.0000    0.0000    0.0000 C   0  0  0  0  0  0  0  0  0  0  0  0
    0.0000    0.0000    0.0000 N   0  0  0  0  0  0  0  0  0  0  0  0
    0.0000    0.0000    0.0000 C   0  0  0  0  0  0  0  0  0  0  0  0
    0.0000    0.0000    0.0000 C   0  0  0  0  0  0  0  0  0  0  0  0
    0.0000    0.0000    0.0000 N   0  0  0  0  0  0  0  0  0  0  0  0
    0.0000    0.0000    0.0000 C   0  0  0  0  0  0  0  0  0  0  0  0
    0.0000    0.0000    0.0000 C   0  0  0  0  0  0  0  0  0  0  0  0
    0.0000    0.0000    0.0000 N   0  0  0  0  0  0  0  0  0  0  0  0
    0.0000    0.0000    0.0000 C   0  0  0  0  0  0  0  0  0  0  0  0
    0.0000    0.0000    0.0000 C   0  0  0  0  0  0  0  0  0  0  0  0
    0.0000    0.0000    0.0000 N   0  0  0  0  0  0  0  0  0  0  0  0
    0.0000    0.0000    0.0000 C   0  0  0  0  0  0  0  0  0  0  0  0
    0.0000    0.0000    0.0000 C   0  0  0  0  0  0  0  0  0  0  0  0
    0.0000    0.0000    0.0000 C   0  0  0  0  0  0  0  0  0  0  0  0
    0.0000    0.0000    0.0000 C   0  0  0  0  0  0  0  0  0  0  0  0
    0.0000    0.0000    0.0000 C   0  0  0  0  0  0  0  0  0  0  0  0
    0.0000    0.0000    0.0000 C   0  0  0  0  0  0  0  0  0  0  0  0
    0.0000    0.0000    0.0000 C   0  0  0  0  0  0  0  0  0  0  0  0
    0.0000    0.0000    0.0000 N   0  0  0  0  0  0  0  0  0  0  0  0
    0.0000    0.0000    0.0000 C   0  0  0  0  0  0  0  0  0  0  0  0
    0.0000    0.0000    0.0000 C   0  0  0  0  0  0  0  0  0  0  0  0
    0.0000    0.0000    0.0000 C   0  0  0  0  0  0  0  0  0  0  0  0
    0.0000    0.0000    0.0000 C   0  0  0  0  0  0  0  0  0  0  0  0
    0.0000    0.0000    0.0000 C   0  0  0  0  0  0  0  0  0  0  0  0
    0.0000    0.0000    0.0000 C   0  0  0  0  0  0  0  0  0  0  0  0
  1  2  1  0
  2  3  1  0
  3  4  2  0
  4  5  1  0
  5  6  2  0
  6  7  1  0
  7  8  1  0
  8  9  1  0
  9 10  2  0
 10 11  1  0
 11 12  2  0
 12 13  1  0
 13 14  2  0
 14 15  1  0
 15 16  2  0
 16 17  1  0
 17 18  2  0
 15 19  1  0
 19 20  2  0
 20 21  1  0
 21 22  2  0
 22 23  1  0
 23 24  2  0
 22 25  1  0
 25 26  1  0
 26 27  1  0
 27 28  1  0
 28 29  1  0
 29 30  1  0
  7 31  2  0
 31  3  1  0
 18  9  1  0
 18 13  1  0
 24 19  1  0
 30 25  1  0
M  END
>  <pIC50>  (732) 
5.1

>  <ChEMBL_ID>  (732) 
CHEMBL3782023

>  <document_journal>  (732) 
MedChemComm

>  <bao_endpoint>  (732) 
BAO_0000190

>  <potential_duplicate>  (732) 
None

>  <uo_units>  (732) 
UO_0000065

>  <canonical_smiles>  (732) 
COc1cccc(Nc2cncc3nc(cnc23)c4ccc(cc4)N5CCCCC5)c1

>  <parent_molecule_chembl_id>  (732) 
CHEMBL3782023

>  <assay_type>  (732) 
B

>  <src_id>  (732) 
1

>  <ligand_efficiency>  (732) 
None

>  <standard_flag>  (732) 
True

>  <molecule_chembl_id>  (732) 
CHEMBL3782023

>  <target_organism>  (732) 
Homo sapiens

>  <standard_units>  (732) 
nM

>  <record_id>  (732) 
2763685

>  <document_chembl_id>  (732) 
CHEMBL3779774

>  <bao_format>  (732) 
None

>  <data_validity_description>  (732) 
None

>  <activity_id>  (732) 
16517202

>  <standard_type>  (732) 
IC50

>  <target_chembl_id>  (732) 
CHEMBL1862

>  <data_validity_comment>  (732) 
None

>  <published_value>  (732) 
7.91

>  <document_year>  (732) 
2016

>  <target_pref_name>  (732) 
Tyrosine-protein kinase ABL

>  <assay_chembl_id>  (732) 
CHEMBL3784517

>  <standard_relation>  (732) 
=

>  <assay_description>  (732) 
Inhibition of recombinant c-Abl (unknown origin) after 1 hr by Alphascreen assay

>  <published_relation>  (732) 
=

>  <standard_value>  (732) 
7910

>  <qudt_units>  (732) 
http://www.openphacts.org/units/Nanomolar

>  <target_tax_id>  (732) 
9606

>  <bao_label>  (732) 
None

>  <published_units>  (732) 
uM

>  <pchembl_value>  (732) 
5.1

>  <published_type>  (732) 
IC50

>  <activity_comment>  (732) 
None

$$$$

     RDKit          

 22 24  0  0  0  0  0  0  0  0999 V2000
    0.0000    0.0000    0.0000 C   0  0  0  0  0  0  0  0  0  0  0  0
    0.0000    0.0000    0.0000 C   0  0  0  0  0  0  0  0  0  0  0  0
    0.0000    0.0000    0.0000 N   0  0  0  0  0  0  0  0  0  0  0  0
    0.0000    0.0000    0.0000 C   0  0  0  0  0  0  0  0  0  0  0  0
    0.0000    0.0000    0.0000 O   0  0  0  0  0  0  0  0  0  0  0  0
    0.0000    0.0000    0.0000 N   0  0  0  0  0  0  0  0  0  0  0  0
    0.0000    0.0000    0.0000 C   0  0  0  0  0  0  0  0  0  0  0  0
    0.0000    0.0000    0.0000 N   0  0  0  0  0  0  0  0  0  0  0  0
    0.0000    0.0000    0.0000 C   0  0  0  0  0  0  0  0  0  0  0  0
    0.0000    0.0000    0.0000 C   0  0  0  0  0  0  0  0  0  0  0  0
    0.0000    0.0000    0.0000 C   0  0  0  0  0  0  0  0  0  0  0  0
    0.0000    0.0000    0.0000 N   0  0  0  0  0  0  0  0  0  0  0  0
    0.0000    0.0000    0.0000 C   0  0  0  0  0  0  0  0  0  0  0  0
    0.0000    0.0000    0.0000 C   0  0  0  0  0  0  0  0  0  0  0  0
    0.0000    0.0000    0.0000 N   0  0  0  0  0  0  0  0  0  0  0  0
    0.0000    0.0000    0.0000 C   0  0  0  0  0  0  0  0  0  0  0  0
    0.0000    0.0000    0.0000 C   0  0  0  0  0  0  0  0  0  0  0  0
    0.0000    0.0000    0.0000 C   0  0  0  0  0  0  0  0  0  0  0  0
    0.0000    0.0000    0.0000 C   0  0  0  0  0  0  0  0  0  0  0  0
    0.0000    0.0000    0.0000 C   0  0  0  0  0  0  0  0  0  0  0  0
    0.0000    0.0000    0.0000 C   0  0  0  0  0  0  0  0  0  0  0  0
    0.0000    0.0000    0.0000 C   0  0  0  0  0  0  0  0  0  0  0  0
  1  2  1  0
  2  3  1  0
  3  4  1  0
  4  5  2  0
  4  6  1  0
  6  7  1  0
  7  8  2  0
  8  9  1  0
  9 10  2  0
 10 11  1  0
 11 12  2  0
 12 13  1  0
 13 14  2  0
 14 15  1  0
 15 16  2  0
 13 17  1  0
 17 18  2  0
 18 19  1  0
 19 20  2  0
 20 21  1  0
 21 22  2  0
 16  7  1  0
 16 11  1  0
 22 17  1  0
M  END
>  <pIC50>  (733) 
4.51

>  <ChEMBL_ID>  (733) 
CHEMBL3780985

>  <document_journal>  (733) 
MedChemComm

>  <bao_endpoint>  (733) 
BAO_0000190

>  <potential_duplicate>  (733) 
None

>  <uo_units>  (733) 
UO_0000065

>  <canonical_smiles>  (733) 
CCNC(=O)Nc1nccc2nc(cnc12)c3ccccc3

>  <parent_molecule_chembl_id>  (733) 
CHEMBL3780985

>  <assay_type>  (733) 
B

>  <src_id>  (733) 
1

>  <ligand_efficiency>  (733) 
None

>  <standard_flag>  (733) 
True

>  <molecule_chembl_id>  (733) 
CHEMBL3780985

>  <target_organism>  (733) 
Homo sapiens

>  <standard_units>  (733) 
nM

>  <record_id>  (733) 
2763687

>  <document_chembl_id>  (733) 
CHEMBL3779774

>  <bao_format>  (733) 
None

>  <data_validity_description>  (733) 
None

>  <activity_id>  (733) 
16517204

>  <standard_type>  (733) 
IC50

>  <target_chembl_id>  (733) 
CHEMBL1862

>  <data_validity_comment>  (733) 
None

>  <published_value>  (733) 
30.83

>  <document_year>  (733) 
2016

>  <target_pref_name>  (733) 
Tyrosine-protein kinase ABL

>  <assay_chembl_id>  (733) 
CHEMBL3784517

>  <standard_relation>  (733) 
=

>  <assay_description>  (733) 
Inhibition of recombinant c-Abl (unknown origin) after 1 hr by Alphascreen assay

>  <published_relation>  (733) 
=

>  <standard_value>  (733) 
30830

>  <qudt_units>  (733) 
http://www.openphacts.org/units/Nanomolar

>  <target_tax_id>  (733) 
9606

>  <bao_label>  (733) 
None

>  <published_units>  (733) 
uM

>  <pchembl_value>  (733) 
4.51

>  <published_type>  (733) 
IC50

>  <activity_comment>  (733) 
None

$$$$

     RDKit          

 25 28  0  0  0  0  0  0  0  0999 V2000
    0.0000    0.0000    0.0000 C   0  0  0  0  0  0  0  0  0  0  0  0
    0.0000    0.0000    0.0000 O   0  0  0  0  0  0  0  0  0  0  0  0
    0.0000    0.0000    0.0000 C   0  0  0  0  0  0  0  0  0  0  0  0
    0.0000    0.0000    0.0000 C   0  0  0  0  0  0  0  0  0  0  0  0
    0.0000    0.0000    0.0000 C   0  0  0  0  0  0  0  0  0  0  0  0
    0.0000    0.0000    0.0000 C   0  0  0  0  0  0  0  0  0  0  0  0
    0.0000    0.0000    0.0000 C   0  0  0  0  0  0  0  0  0  0  0  0
    0.0000    0.0000    0.0000 C   0  0  0  0  0  0  0  0  0  0  0  0
    0.0000    0.0000    0.0000 N   0  0  0  0  0  0  0  0  0  0  0  0
    0.0000    0.0000    0.0000 C   0  0  0  0  0  0  0  0  0  0  0  0
    0.0000    0.0000    0.0000 N   0  0  0  0  0  0  0  0  0  0  0  0
    0.0000    0.0000    0.0000 C   0  0  0  0  0  0  0  0  0  0  0  0
    0.0000    0.0000    0.0000 C   0  0  0  0  0  0  0  0  0  0  0  0
    0.0000    0.0000    0.0000 C   0  0  0  0  0  0  0  0  0  0  0  0
    0.0000    0.0000    0.0000 N   0  0  0  0  0  0  0  0  0  0  0  0
    0.0000    0.0000    0.0000 C   0  0  0  0  0  0  0  0  0  0  0  0
    0.0000    0.0000    0.0000 C   0  0  0  0  0  0  0  0  0  0  0  0
    0.0000    0.0000    0.0000 N   0  0  0  0  0  0  0  0  0  0  0  0
    0.0000    0.0000    0.0000 C   0  0  0  0  0  0  0  0  0  0  0  0
    0.0000    0.0000    0.0000 C   0  0  0  0  0  0  0  0  0  0  0  0
    0.0000    0.0000    0.0000 C   0  0  0  0  0  0  0  0  0  0  0  0
    0.0000    0.0000    0.0000 C   0  0  0  0  0  0  0  0  0  0  0  0
    0.0000    0.0000    0.0000 C   0  0  0  0  0  0  0  0  0  0  0  0
    0.0000    0.0000    0.0000 C   0  0  0  0  0  0  0  0  0  0  0  0
    0.0000    0.0000    0.0000 C   0  0  0  0  0  0  0  0  0  0  0  0
  1  2  1  0
  2  3  1  0
  3  4  2  0
  4  5  1  0
  5  6  2  0
  6  7  1  0
  7  8  2  0
  8  9  1  0
  9 10  1  0
 10 11  2  0
 11 12  1  0
 12 13  2  0
 13 14  1  0
 14 15  2  0
 15 16  1  0
 16 17  2  0
 17 18  1  0
 18 19  2  0
 16 20  1  0
 20 21  2  0
 21 22  1  0
 22 23  2  0
 23 24  1  0
 24 25  2  0
  8  3  1  0
 19 10  1  0
 19 14  1  0
 25 20  1  0
M  END
>  <pIC50>  (734) 
4.78

>  <ChEMBL_ID>  (734) 
CHEMBL3781543

>  <document_journal>  (734) 
MedChemComm

>  <bao_endpoint>  (734) 
BAO_0000190

>  <potential_duplicate>  (734) 
None

>  <uo_units>  (734) 
UO_0000065

>  <canonical_smiles>  (734) 
COc1ccccc1Nc2nccc3nc(cnc23)c4ccccc4

>  <parent_molecule_chembl_id>  (734) 
CHEMBL3781543

>  <assay_type>  (734) 
B

>  <src_id>  (734) 
1

>  <ligand_efficiency>  (734) 
None

>  <standard_flag>  (734) 
True

>  <molecule_chembl_id>  (734) 
CHEMBL3781543

>  <target_organism>  (734) 
Homo sapiens

>  <standard_units>  (734) 
nM

>  <record_id>  (734) 
2763689

>  <document_chembl_id>  (734) 
CHEMBL3779774

>  <bao_format>  (734) 
None

>  <data_validity_description>  (734) 
None

>  <activity_id>  (734) 
16517206

>  <standard_type>  (734) 
IC50

>  <target_chembl_id>  (734) 
CHEMBL1862

>  <data_validity_comment>  (734) 
None

>  <published_value>  (734) 
16.61

>  <document_year>  (734) 
2016

>  <target_pref_name>  (734) 
Tyrosine-protein kinase ABL

>  <assay_chembl_id>  (734) 
CHEMBL3784517

>  <standard_relation>  (734) 
=

>  <assay_description>  (734) 
Inhibition of recombinant c-Abl (unknown origin) after 1 hr by Alphascreen assay

>  <published_relation>  (734) 
=

>  <standard_value>  (734) 
16610

>  <qudt_units>  (734) 
http://www.openphacts.org/units/Nanomolar

>  <target_tax_id>  (734) 
9606

>  <bao_label>  (734) 
None

>  <published_units>  (734) 
uM

>  <pchembl_value>  (734) 
4.78

>  <published_type>  (734) 
IC50

>  <activity_comment>  (734) 
None

$$$$

     RDKit          

 29 33  0  0  0  0  0  0  0  0999 V2000
    0.0000    0.0000    0.0000 C   0  0  0  0  0  0  0  0  0  0  0  0
    0.0000    0.0000    0.0000 C   0  0  0  0  0  0  0  0  0  0  0  0
    0.0000    0.0000    0.0000 C   0  0  0  0  0  0  0  0  0  0  0  0
    0.0000    0.0000    0.0000 N   0  0  0  0  0  0  0  0  0  0  0  0
    0.0000    0.0000    0.0000 C   0  0  0  0  0  0  0  0  0  0  0  0
    0.0000    0.0000    0.0000 C   0  0  0  0  0  0  0  0  0  0  0  0
    0.0000    0.0000    0.0000 C   0  0  0  0  0  0  0  0  0  0  0  0
    0.0000    0.0000    0.0000 C   0  0  0  0  0  0  0  0  0  0  0  0
    0.0000    0.0000    0.0000 C   0  0  0  0  0  0  0  0  0  0  0  0
    0.0000    0.0000    0.0000 C   0  0  0  0  0  0  0  0  0  0  0  0
    0.0000    0.0000    0.0000 N   0  0  0  0  0  0  0  0  0  0  0  0
    0.0000    0.0000    0.0000 C   0  0  0  0  0  0  0  0  0  0  0  0
    0.0000    0.0000    0.0000 N   0  0  0  0  0  0  0  0  0  0  0  0
    0.0000    0.0000    0.0000 C   0  0  0  0  0  0  0  0  0  0  0  0
    0.0000    0.0000    0.0000 C   0  0  0  0  0  0  0  0  0  0  0  0
    0.0000    0.0000    0.0000 C   0  0  0  0  0  0  0  0  0  0  0  0
    0.0000    0.0000    0.0000 N   0  0  0  0  0  0  0  0  0  0  0  0
    0.0000    0.0000    0.0000 C   0  0  0  0  0  0  0  0  0  0  0  0
    0.0000    0.0000    0.0000 C   0  0  0  0  0  0  0  0  0  0  0  0
    0.0000    0.0000    0.0000 N   0  0  0  0  0  0  0  0  0  0  0  0
    0.0000    0.0000    0.0000 C   0  0  0  0  0  0  0  0  0  0  0  0
    0.0000    0.0000    0.0000 C   0  0  0  0  0  0  0  0  0  0  0  0
    0.0000    0.0000    0.0000 C   0  0  0  0  0  0  0  0  0  0  0  0
    0.0000    0.0000    0.0000 C   0  0  0  0  0  0  0  0  0  0  0  0
    0.0000    0.0000    0.0000 C   0  0  0  0  0  0  0  0  0  0  0  0
    0.0000    0.0000    0.0000 C   0  0  0  0  0  0  0  0  0  0  0  0
    0.0000    0.0000    0.0000 C   0  0  0  0  0  0  0  0  0  0  0  0
    0.0000    0.0000    0.0000 C   0  0  0  0  0  0  0  0  0  0  0  0
    0.0000    0.0000    0.0000 C   0  0  0  0  0  0  0  0  0  0  0  0
  1  2  1  0
  2  3  1  0
  3  4  1  0
  4  5  1  0
  5  6  1  0
  4  7  1  0
  7  8  2  0
  8  9  1  0
  9 10  2  0
 10 11  1  0
 11 12  1  0
 12 13  2  0
 13 14  1  0
 14 15  2  0
 15 16  1  0
 16 17  2  0
 17 18  1  0
 18 19  2  0
 19 20  1  0
 20 21  2  0
 18 22  1  0
 22 23  2  0
 23 24  1  0
 24 25  2  0
 25 26  1  0
 26 27  2  0
 10 28  1  0
 28 29  2  0
  6  1  1  0
 29  7  1  0
 21 12  1  0
 21 16  1  0
 27 22  1  0
M  END
>  <pIC50>  (735) 
5.58

>  <ChEMBL_ID>  (735) 
CHEMBL3780758

>  <document_journal>  (735) 
MedChemComm

>  <bao_endpoint>  (735) 
BAO_0000190

>  <potential_duplicate>  (735) 
None

>  <uo_units>  (735) 
UO_0000065

>  <canonical_smiles>  (735) 
C1CCN(CC1)c2ccc(Nc3nccc4nc(cnc34)c5ccccc5)cc2

>  <parent_molecule_chembl_id>  (735) 
CHEMBL3780758

>  <assay_type>  (735) 
B

>  <src_id>  (735) 
1

>  <ligand_efficiency>  (735) 
None

>  <standard_flag>  (735) 
True

>  <molecule_chembl_id>  (735) 
CHEMBL3780758

>  <target_organism>  (735) 
Homo sapiens

>  <standard_units>  (735) 
nM

>  <record_id>  (735) 
2763692

>  <document_chembl_id>  (735) 
CHEMBL3779774

>  <bao_format>  (735) 
None

>  <data_validity_description>  (735) 
None

>  <activity_id>  (735) 
16517209

>  <standard_type>  (735) 
IC50

>  <target_chembl_id>  (735) 
CHEMBL1862

>  <data_validity_comment>  (735) 
None

>  <published_value>  (735) 
2.66

>  <document_year>  (735) 
2016

>  <target_pref_name>  (735) 
Tyrosine-protein kinase ABL

>  <assay_chembl_id>  (735) 
CHEMBL3784517

>  <standard_relation>  (735) 
=

>  <assay_description>  (735) 
Inhibition of recombinant c-Abl (unknown origin) after 1 hr by Alphascreen assay

>  <published_relation>  (735) 
=

>  <standard_value>  (735) 
2660

>  <qudt_units>  (735) 
http://www.openphacts.org/units/Nanomolar

>  <target_tax_id>  (735) 
9606

>  <bao_label>  (735) 
None

>  <published_units>  (735) 
uM

>  <pchembl_value>  (735) 
5.58

>  <published_type>  (735) 
IC50

>  <activity_comment>  (735) 
None

$$$$

     RDKit          

 29 33  0  0  0  0  0  0  0  0999 V2000
    0.0000    0.0000    0.0000 C   0  0  0  0  0  0  0  0  0  0  0  0
    0.0000    0.0000    0.0000 C   0  0  0  0  0  0  0  0  0  0  0  0
    0.0000    0.0000    0.0000 N   0  0  0  0  0  0  0  0  0  0  0  0
    0.0000    0.0000    0.0000 C   0  0  0  0  0  0  0  0  0  0  0  0
    0.0000    0.0000    0.0000 C   0  0  0  0  0  0  0  0  0  0  0  0
    0.0000    0.0000    0.0000 O   0  0  0  0  0  0  0  0  0  0  0  0
    0.0000    0.0000    0.0000 C   0  0  0  0  0  0  0  0  0  0  0  0
    0.0000    0.0000    0.0000 C   0  0  0  0  0  0  0  0  0  0  0  0
    0.0000    0.0000    0.0000 C   0  0  0  0  0  0  0  0  0  0  0  0
    0.0000    0.0000    0.0000 C   0  0  0  0  0  0  0  0  0  0  0  0
    0.0000    0.0000    0.0000 N   0  0  0  0  0  0  0  0  0  0  0  0
    0.0000    0.0000    0.0000 C   0  0  0  0  0  0  0  0  0  0  0  0
    0.0000    0.0000    0.0000 N   0  0  0  0  0  0  0  0  0  0  0  0
    0.0000    0.0000    0.0000 C   0  0  0  0  0  0  0  0  0  0  0  0
    0.0000    0.0000    0.0000 C   0  0  0  0  0  0  0  0  0  0  0  0
    0.0000    0.0000    0.0000 C   0  0  0  0  0  0  0  0  0  0  0  0
    0.0000    0.0000    0.0000 N   0  0  0  0  0  0  0  0  0  0  0  0
    0.0000    0.0000    0.0000 C   0  0  0  0  0  0  0  0  0  0  0  0
    0.0000    0.0000    0.0000 C   0  0  0  0  0  0  0  0  0  0  0  0
    0.0000    0.0000    0.0000 N   0  0  0  0  0  0  0  0  0  0  0  0
    0.0000    0.0000    0.0000 C   0  0  0  0  0  0  0  0  0  0  0  0
    0.0000    0.0000    0.0000 C   0  0  0  0  0  0  0  0  0  0  0  0
    0.0000    0.0000    0.0000 C   0  0  0  0  0  0  0  0  0  0  0  0
    0.0000    0.0000    0.0000 C   0  0  0  0  0  0  0  0  0  0  0  0
    0.0000    0.0000    0.0000 C   0  0  0  0  0  0  0  0  0  0  0  0
    0.0000    0.0000    0.0000 C   0  0  0  0  0  0  0  0  0  0  0  0
    0.0000    0.0000    0.0000 C   0  0  0  0  0  0  0  0  0  0  0  0
    0.0000    0.0000    0.0000 C   0  0  0  0  0  0  0  0  0  0  0  0
    0.0000    0.0000    0.0000 C   0  0  0  0  0  0  0  0  0  0  0  0
  1  2  1  0
  2  3  1  0
  3  4  1  0
  4  5  1  0
  5  6  1  0
  3  7  1  0
  7  8  2  0
  8  9  1  0
  9 10  2  0
 10 11  1  0
 11 12  1  0
 12 13  2  0
 13 14  1  0
 14 15  2  0
 15 16  1  0
 16 17  2  0
 17 18  1  0
 18 19  2  0
 19 20  1  0
 20 21  2  0
 18 22  1  0
 22 23  2  0
 23 24  1  0
 24 25  2  0
 25 26  1  0
 26 27  2  0
 10 28  1  0
 28 29  2  0
  6  1  1  0
 29  7  1  0
 21 12  1  0
 21 16  1  0
 27 22  1  0
M  END
>  <pIC50>  (736) 
4.94

>  <ChEMBL_ID>  (736) 
CHEMBL3780515

>  <document_journal>  (736) 
MedChemComm

>  <bao_endpoint>  (736) 
BAO_0000190

>  <potential_duplicate>  (736) 
None

>  <uo_units>  (736) 
UO_0000065

>  <canonical_smiles>  (736) 
C1CN(CCO1)c2ccc(Nc3nccc4nc(cnc34)c5ccccc5)cc2

>  <parent_molecule_chembl_id>  (736) 
CHEMBL3780515

>  <assay_type>  (736) 
B

>  <src_id>  (736) 
1

>  <ligand_efficiency>  (736) 
None

>  <standard_flag>  (736) 
True

>  <molecule_chembl_id>  (736) 
CHEMBL3780515

>  <target_organism>  (736) 
Homo sapiens

>  <standard_units>  (736) 
nM

>  <record_id>  (736) 
2763693

>  <document_chembl_id>  (736) 
CHEMBL3779774

>  <bao_format>  (736) 
None

>  <data_validity_description>  (736) 
None

>  <activity_id>  (736) 
16517210

>  <standard_type>  (736) 
IC50

>  <target_chembl_id>  (736) 
CHEMBL1862

>  <data_validity_comment>  (736) 
None

>  <published_value>  (736) 
11.52

>  <document_year>  (736) 
2016

>  <target_pref_name>  (736) 
Tyrosine-protein kinase ABL

>  <assay_chembl_id>  (736) 
CHEMBL3784517

>  <standard_relation>  (736) 
=

>  <assay_description>  (736) 
Inhibition of recombinant c-Abl (unknown origin) after 1 hr by Alphascreen assay

>  <published_relation>  (736) 
=

>  <standard_value>  (736) 
11520

>  <qudt_units>  (736) 
http://www.openphacts.org/units/Nanomolar

>  <target_tax_id>  (736) 
9606

>  <bao_label>  (736) 
None

>  <published_units>  (736) 
uM

>  <pchembl_value>  (736) 
4.94

>  <published_type>  (736) 
IC50

>  <activity_comment>  (736) 
None

$$$$

     RDKit          

 31 35  0  0  0  0  0  0  0  0999 V2000
    0.0000    0.0000    0.0000 C   0  0  0  0  0  0  0  0  0  0  0  0
    0.0000    0.0000    0.0000 O   0  0  0  0  0  0  0  0  0  0  0  0
    0.0000    0.0000    0.0000 C   0  0  0  0  0  0  0  0  0  0  0  0
    0.0000    0.0000    0.0000 C   0  0  0  0  0  0  0  0  0  0  0  0
    0.0000    0.0000    0.0000 C   0  0  0  0  0  0  0  0  0  0  0  0
    0.0000    0.0000    0.0000 C   0  0  0  0  0  0  0  0  0  0  0  0
    0.0000    0.0000    0.0000 C   0  0  0  0  0  0  0  0  0  0  0  0
    0.0000    0.0000    0.0000 C   0  0  0  0  0  0  0  0  0  0  0  0
    0.0000    0.0000    0.0000 C   0  0  0  0  0  0  0  0  0  0  0  0
    0.0000    0.0000    0.0000 C   0  0  0  0  0  0  0  0  0  0  0  0
    0.0000    0.0000    0.0000 N   0  0  0  0  0  0  0  0  0  0  0  0
    0.0000    0.0000    0.0000 C   0  0  0  0  0  0  0  0  0  0  0  0
    0.0000    0.0000    0.0000 C   0  0  0  0  0  0  0  0  0  0  0  0
    0.0000    0.0000    0.0000 N   0  0  0  0  0  0  0  0  0  0  0  0
    0.0000    0.0000    0.0000 C   0  0  0  0  0  0  0  0  0  0  0  0
    0.0000    0.0000    0.0000 C   0  0  0  0  0  0  0  0  0  0  0  0
    0.0000    0.0000    0.0000 C   0  0  0  0  0  0  0  0  0  0  0  0
    0.0000    0.0000    0.0000 C   0  0  0  0  0  0  0  0  0  0  0  0
    0.0000    0.0000    0.0000 C   0  0  0  0  0  0  0  0  0  0  0  0
    0.0000    0.0000    0.0000 C   0  0  0  0  0  0  0  0  0  0  0  0
    0.0000    0.0000    0.0000 N   0  0  0  0  0  0  0  0  0  0  0  0
    0.0000    0.0000    0.0000 C   0  0  0  0  0  0  0  0  0  0  0  0
    0.0000    0.0000    0.0000 C   0  0  0  0  0  0  0  0  0  0  0  0
    0.0000    0.0000    0.0000 C   0  0  0  0  0  0  0  0  0  0  0  0
    0.0000    0.0000    0.0000 C   0  0  0  0  0  0  0  0  0  0  0  0
    0.0000    0.0000    0.0000 C   0  0  0  0  0  0  0  0  0  0  0  0
    0.0000    0.0000    0.0000 N   0  0  0  0  0  0  0  0  0  0  0  0
    0.0000    0.0000    0.0000 C   0  0  0  0  0  0  0  0  0  0  0  0
    0.0000    0.0000    0.0000 C   0  0  0  0  0  0  0  0  0  0  0  0
    0.0000    0.0000    0.0000 C   0  0  0  0  0  0  0  0  0  0  0  0
    0.0000    0.0000    0.0000 N   0  0  0  0  0  0  0  0  0  0  0  0
  1  2  1  0
  2  3  1  0
  3  4  2  0
  4  5  1  0
  5  6  2  0
  6  7  1  0
  7  8  2  0
  6  9  1  0
  9 10  2  0
 10 11  1  0
 11 12  2  0
 12 13  1  0
 13 14  1  0
 14 15  1  0
 15 16  2  0
 16 17  1  0
 17 18  2  0
 18 19  1  0
 19 20  2  0
 18 21  1  0
 21 22  1  0
 22 23  1  0
 23 24  1  0
 24 25  1  0
 25 26  1  0
 13 27  2  0
 27 28  1  0
 28 29  2  0
 29 30  1  0
 30 31  2  0
  8  3  1  0
 31  9  1  0
 30 12  1  0
 20 15  1  0
 26 21  1  0
M  END
>  <pIC50>  (737) 
5.87

>  <ChEMBL_ID>  (737) 
CHEMBL3781651

>  <document_journal>  (737) 
MedChemComm

>  <bao_endpoint>  (737) 
BAO_0000190

>  <potential_duplicate>  (737) 
None

>  <uo_units>  (737) 
UO_0000065

>  <canonical_smiles>  (737) 
COc1ccc(cc1)c2cnc3c(Nc4ccc(cc4)N5CCCCC5)nccc3n2

>  <parent_molecule_chembl_id>  (737) 
CHEMBL3781651

>  <assay_type>  (737) 
B

>  <src_id>  (737) 
1

>  <ligand_efficiency>  (737) 
None

>  <standard_flag>  (737) 
True

>  <molecule_chembl_id>  (737) 
CHEMBL3781651

>  <target_organism>  (737) 
Homo sapiens

>  <standard_units>  (737) 
nM

>  <record_id>  (737) 
2763694

>  <document_chembl_id>  (737) 
CHEMBL3779774

>  <bao_format>  (737) 
None

>  <data_validity_description>  (737) 
None

>  <activity_id>  (737) 
16517211

>  <standard_type>  (737) 
IC50

>  <target_chembl_id>  (737) 
CHEMBL1862

>  <data_validity_comment>  (737) 
None

>  <published_value>  (737) 
1.34

>  <document_year>  (737) 
2016

>  <target_pref_name>  (737) 
Tyrosine-protein kinase ABL

>  <assay_chembl_id>  (737) 
CHEMBL3784517

>  <standard_relation>  (737) 
=

>  <assay_description>  (737) 
Inhibition of recombinant c-Abl (unknown origin) after 1 hr by Alphascreen assay

>  <published_relation>  (737) 
=

>  <standard_value>  (737) 
1340

>  <qudt_units>  (737) 
http://www.openphacts.org/units/Nanomolar

>  <target_tax_id>  (737) 
9606

>  <bao_label>  (737) 
None

>  <published_units>  (737) 
uM

>  <pchembl_value>  (737) 
5.87

>  <published_type>  (737) 
IC50

>  <activity_comment>  (737) 
None

$$$$

     RDKit          

 31 35  0  0  0  0  0  0  0  0999 V2000
    0.0000    0.0000    0.0000 C   0  0  0  0  0  0  0  0  0  0  0  0
    0.0000    0.0000    0.0000 O   0  0  0  0  0  0  0  0  0  0  0  0
    0.0000    0.0000    0.0000 C   0  0  0  0  0  0  0  0  0  0  0  0
    0.0000    0.0000    0.0000 C   0  0  0  0  0  0  0  0  0  0  0  0
    0.0000    0.0000    0.0000 C   0  0  0  0  0  0  0  0  0  0  0  0
    0.0000    0.0000    0.0000 C   0  0  0  0  0  0  0  0  0  0  0  0
    0.0000    0.0000    0.0000 C   0  0  0  0  0  0  0  0  0  0  0  0
    0.0000    0.0000    0.0000 C   0  0  0  0  0  0  0  0  0  0  0  0
    0.0000    0.0000    0.0000 C   0  0  0  0  0  0  0  0  0  0  0  0
    0.0000    0.0000    0.0000 C   0  0  0  0  0  0  0  0  0  0  0  0
    0.0000    0.0000    0.0000 N   0  0  0  0  0  0  0  0  0  0  0  0
    0.0000    0.0000    0.0000 C   0  0  0  0  0  0  0  0  0  0  0  0
    0.0000    0.0000    0.0000 C   0  0  0  0  0  0  0  0  0  0  0  0
    0.0000    0.0000    0.0000 N   0  0  0  0  0  0  0  0  0  0  0  0
    0.0000    0.0000    0.0000 C   0  0  0  0  0  0  0  0  0  0  0  0
    0.0000    0.0000    0.0000 C   0  0  0  0  0  0  0  0  0  0  0  0
    0.0000    0.0000    0.0000 C   0  0  0  0  0  0  0  0  0  0  0  0
    0.0000    0.0000    0.0000 C   0  0  0  0  0  0  0  0  0  0  0  0
    0.0000    0.0000    0.0000 C   0  0  0  0  0  0  0  0  0  0  0  0
    0.0000    0.0000    0.0000 C   0  0  0  0  0  0  0  0  0  0  0  0
    0.0000    0.0000    0.0000 N   0  0  0  0  0  0  0  0  0  0  0  0
    0.0000    0.0000    0.0000 C   0  0  0  0  0  0  0  0  0  0  0  0
    0.0000    0.0000    0.0000 C   0  0  0  0  0  0  0  0  0  0  0  0
    0.0000    0.0000    0.0000 O   0  0  0  0  0  0  0  0  0  0  0  0
    0.0000    0.0000    0.0000 C   0  0  0  0  0  0  0  0  0  0  0  0
    0.0000    0.0000    0.0000 C   0  0  0  0  0  0  0  0  0  0  0  0
    0.0000    0.0000    0.0000 N   0  0  0  0  0  0  0  0  0  0  0  0
    0.0000    0.0000    0.0000 C   0  0  0  0  0  0  0  0  0  0  0  0
    0.0000    0.0000    0.0000 C   0  0  0  0  0  0  0  0  0  0  0  0
    0.0000    0.0000    0.0000 C   0  0  0  0  0  0  0  0  0  0  0  0
    0.0000    0.0000    0.0000 N   0  0  0  0  0  0  0  0  0  0  0  0
  1  2  1  0
  2  3  1  0
  3  4  2  0
  4  5  1  0
  5  6  2  0
  6  7  1  0
  7  8  2  0
  6  9  1  0
  9 10  2  0
 10 11  1  0
 11 12  2  0
 12 13  1  0
 13 14  1  0
 14 15  1  0
 15 16  2  0
 16 17  1  0
 17 18  2  0
 18 19  1  0
 19 20  2  0
 18 21  1  0
 21 22  1  0
 22 23  1  0
 23 24  1  0
 24 25  1  0
 25 26  1  0
 13 27  2  0
 27 28  1  0
 28 29  2  0
 29 30  1  0
 30 31  2  0
  8  3  1  0
 31  9  1  0
 30 12  1  0
 20 15  1  0
 26 21  1  0
M  END
>  <pIC50>  (738) 
5.27

>  <ChEMBL_ID>  (738) 
CHEMBL3780637

>  <document_journal>  (738) 
MedChemComm

>  <bao_endpoint>  (738) 
BAO_0000190

>  <potential_duplicate>  (738) 
None

>  <uo_units>  (738) 
UO_0000065

>  <canonical_smiles>  (738) 
COc1ccc(cc1)c2cnc3c(Nc4ccc(cc4)N5CCOCC5)nccc3n2

>  <parent_molecule_chembl_id>  (738) 
CHEMBL3780637

>  <assay_type>  (738) 
B

>  <src_id>  (738) 
1

>  <ligand_efficiency>  (738) 
None

>  <standard_flag>  (738) 
True

>  <molecule_chembl_id>  (738) 
CHEMBL3780637

>  <target_organism>  (738) 
Homo sapiens

>  <standard_units>  (738) 
nM

>  <record_id>  (738) 
2763695

>  <document_chembl_id>  (738) 
CHEMBL3779774

>  <bao_format>  (738) 
None

>  <data_validity_description>  (738) 
None

>  <activity_id>  (738) 
16517212

>  <standard_type>  (738) 
IC50

>  <target_chembl_id>  (738) 
CHEMBL1862

>  <data_validity_comment>  (738) 
None

>  <published_value>  (738) 
5.37

>  <document_year>  (738) 
2016

>  <target_pref_name>  (738) 
Tyrosine-protein kinase ABL

>  <assay_chembl_id>  (738) 
CHEMBL3784517

>  <standard_relation>  (738) 
=

>  <assay_description>  (738) 
Inhibition of recombinant c-Abl (unknown origin) after 1 hr by Alphascreen assay

>  <published_relation>  (738) 
=

>  <standard_value>  (738) 
5370

>  <qudt_units>  (738) 
http://www.openphacts.org/units/Nanomolar

>  <target_tax_id>  (738) 
9606

>  <bao_label>  (738) 
None

>  <published_units>  (738) 
uM

>  <pchembl_value>  (738) 
5.27

>  <published_type>  (738) 
IC50

>  <activity_comment>  (738) 
None

$$$$

     RDKit          

 29 33  0  0  0  0  0  0  0  0999 V2000
    0.0000    0.0000    0.0000 C   0  0  0  0  0  0  0  0  0  0  0  0
    0.0000    0.0000    0.0000 C   0  0  0  0  0  0  0  0  0  0  0  0
    0.0000    0.0000    0.0000 C   0  0  0  0  0  0  0  0  0  0  0  0
    0.0000    0.0000    0.0000 N   0  0  0  0  0  0  0  0  0  0  0  0
    0.0000    0.0000    0.0000 C   0  0  0  0  0  0  0  0  0  0  0  0
    0.0000    0.0000    0.0000 C   0  0  0  0  0  0  0  0  0  0  0  0
    0.0000    0.0000    0.0000 C   0  0  0  0  0  0  0  0  0  0  0  0
    0.0000    0.0000    0.0000 C   0  0  0  0  0  0  0  0  0  0  0  0
    0.0000    0.0000    0.0000 C   0  0  0  0  0  0  0  0  0  0  0  0
    0.0000    0.0000    0.0000 C   0  0  0  0  0  0  0  0  0  0  0  0
    0.0000    0.0000    0.0000 N   0  0  0  0  0  0  0  0  0  0  0  0
    0.0000    0.0000    0.0000 C   0  0  0  0  0  0  0  0  0  0  0  0
    0.0000    0.0000    0.0000 C   0  0  0  0  0  0  0  0  0  0  0  0
    0.0000    0.0000    0.0000 C   0  0  0  0  0  0  0  0  0  0  0  0
    0.0000    0.0000    0.0000 N   0  0  0  0  0  0  0  0  0  0  0  0
    0.0000    0.0000    0.0000 C   0  0  0  0  0  0  0  0  0  0  0  0
    0.0000    0.0000    0.0000 C   0  0  0  0  0  0  0  0  0  0  0  0
    0.0000    0.0000    0.0000 N   0  0  0  0  0  0  0  0  0  0  0  0
    0.0000    0.0000    0.0000 C   0  0  0  0  0  0  0  0  0  0  0  0
    0.0000    0.0000    0.0000 C   0  0  0  0  0  0  0  0  0  0  0  0
    0.0000    0.0000    0.0000 N   0  0  0  0  0  0  0  0  0  0  0  0
    0.0000    0.0000    0.0000 C   0  0  0  0  0  0  0  0  0  0  0  0
    0.0000    0.0000    0.0000 C   0  0  0  0  0  0  0  0  0  0  0  0
    0.0000    0.0000    0.0000 C   0  0  0  0  0  0  0  0  0  0  0  0
    0.0000    0.0000    0.0000 C   0  0  0  0  0  0  0  0  0  0  0  0
    0.0000    0.0000    0.0000 C   0  0  0  0  0  0  0  0  0  0  0  0
    0.0000    0.0000    0.0000 C   0  0  0  0  0  0  0  0  0  0  0  0
    0.0000    0.0000    0.0000 C   0  0  0  0  0  0  0  0  0  0  0  0
    0.0000    0.0000    0.0000 C   0  0  0  0  0  0  0  0  0  0  0  0
  1  2  1  0
  2  3  1  0
  3  4  1  0
  4  5  1  0
  5  6  1  0
  4  7  1  0
  7  8  2  0
  8  9  1  0
  9 10  2  0
 10 11  1  0
 11 12  1  0
 12 13  2  0
 13 14  1  0
 14 15  2  0
 15 16  1  0
 16 17  2  0
 17 18  1  0
 18 19  2  0
 19 20  1  0
 20 21  2  0
 16 22  1  0
 22 23  2  0
 23 24  1  0
 24 25  2  0
 25 26  1  0
 26 27  2  0
 10 28  1  0
 28 29  2  0
  6  1  1  0
 29  7  1  0
 21 12  1  0
 19 14  1  0
 27 22  1  0
M  END
>  <pIC50>  (739) 
5.06

>  <ChEMBL_ID>  (739) 
CHEMBL3781795

>  <document_journal>  (739) 
MedChemComm

>  <bao_endpoint>  (739) 
BAO_0000190

>  <potential_duplicate>  (739) 
None

>  <uo_units>  (739) 
UO_0000065

>  <canonical_smiles>  (739) 
C1CCN(CC1)c2ccc(Nc3cc4nc(cnc4cn3)c5ccccc5)cc2

>  <parent_molecule_chembl_id>  (739) 
CHEMBL3781795

>  <assay_type>  (739) 
B

>  <src_id>  (739) 
1

>  <ligand_efficiency>  (739) 
None

>  <standard_flag>  (739) 
True

>  <molecule_chembl_id>  (739) 
CHEMBL3781795

>  <target_organism>  (739) 
Homo sapiens

>  <standard_units>  (739) 
nM

>  <record_id>  (739) 
2763697

>  <document_chembl_id>  (739) 
CHEMBL3779774

>  <bao_format>  (739) 
None

>  <data_validity_description>  (739) 
None

>  <activity_id>  (739) 
16517214

>  <standard_type>  (739) 
IC50

>  <target_chembl_id>  (739) 
CHEMBL1862

>  <data_validity_comment>  (739) 
None

>  <published_value>  (739) 
8.71

>  <document_year>  (739) 
2016

>  <target_pref_name>  (739) 
Tyrosine-protein kinase ABL

>  <assay_chembl_id>  (739) 
CHEMBL3784517

>  <standard_relation>  (739) 
=

>  <assay_description>  (739) 
Inhibition of recombinant c-Abl (unknown origin) after 1 hr by Alphascreen assay

>  <published_relation>  (739) 
=

>  <standard_value>  (739) 
8710

>  <qudt_units>  (739) 
http://www.openphacts.org/units/Nanomolar

>  <target_tax_id>  (739) 
9606

>  <bao_label>  (739) 
None

>  <published_units>  (739) 
uM

>  <pchembl_value>  (739) 
5.06

>  <published_type>  (739) 
IC50

>  <activity_comment>  (739) 
None

$$$$

     RDKit          

 29 33  0  0  0  0  0  0  0  0999 V2000
    0.0000    0.0000    0.0000 C   0  0  0  0  0  0  0  0  0  0  0  0
    0.0000    0.0000    0.0000 C   0  0  0  0  0  0  0  0  0  0  0  0
    0.0000    0.0000    0.0000 C   0  0  0  0  0  0  0  0  0  0  0  0
    0.0000    0.0000    0.0000 N   0  0  0  0  0  0  0  0  0  0  0  0
    0.0000    0.0000    0.0000 C   0  0  0  0  0  0  0  0  0  0  0  0
    0.0000    0.0000    0.0000 C   0  0  0  0  0  0  0  0  0  0  0  0
    0.0000    0.0000    0.0000 C   0  0  0  0  0  0  0  0  0  0  0  0
    0.0000    0.0000    0.0000 C   0  0  0  0  0  0  0  0  0  0  0  0
    0.0000    0.0000    0.0000 C   0  0  0  0  0  0  0  0  0  0  0  0
    0.0000    0.0000    0.0000 C   0  0  0  0  0  0  0  0  0  0  0  0
    0.0000    0.0000    0.0000 N   0  0  0  0  0  0  0  0  0  0  0  0
    0.0000    0.0000    0.0000 C   0  0  0  0  0  0  0  0  0  0  0  0
    0.0000    0.0000    0.0000 C   0  0  0  0  0  0  0  0  0  0  0  0
    0.0000    0.0000    0.0000 C   0  0  0  0  0  0  0  0  0  0  0  0
    0.0000    0.0000    0.0000 N   0  0  0  0  0  0  0  0  0  0  0  0
    0.0000    0.0000    0.0000 C   0  0  0  0  0  0  0  0  0  0  0  0
    0.0000    0.0000    0.0000 C   0  0  0  0  0  0  0  0  0  0  0  0
    0.0000    0.0000    0.0000 N   0  0  0  0  0  0  0  0  0  0  0  0
    0.0000    0.0000    0.0000 C   0  0  0  0  0  0  0  0  0  0  0  0
    0.0000    0.0000    0.0000 C   0  0  0  0  0  0  0  0  0  0  0  0
    0.0000    0.0000    0.0000 N   0  0  0  0  0  0  0  0  0  0  0  0
    0.0000    0.0000    0.0000 C   0  0  0  0  0  0  0  0  0  0  0  0
    0.0000    0.0000    0.0000 C   0  0  0  0  0  0  0  0  0  0  0  0
    0.0000    0.0000    0.0000 C   0  0  0  0  0  0  0  0  0  0  0  0
    0.0000    0.0000    0.0000 C   0  0  0  0  0  0  0  0  0  0  0  0
    0.0000    0.0000    0.0000 C   0  0  0  0  0  0  0  0  0  0  0  0
    0.0000    0.0000    0.0000 C   0  0  0  0  0  0  0  0  0  0  0  0
    0.0000    0.0000    0.0000 C   0  0  0  0  0  0  0  0  0  0  0  0
    0.0000    0.0000    0.0000 C   0  0  0  0  0  0  0  0  0  0  0  0
  1  2  1  0
  2  3  1  0
  3  4  1  0
  4  5  1  0
  5  6  1  0
  4  7  1  0
  7  8  2  0
  8  9  1  0
  9 10  2  0
 10 11  1  0
 11 12  1  0
 12 13  2  0
 13 14  1  0
 14 15  2  0
 15 16  1  0
 16 17  2  0
 17 18  1  0
 18 19  2  0
 19 20  1  0
 20 21  2  0
 17 22  1  0
 22 23  2  0
 23 24  1  0
 24 25  2  0
 25 26  1  0
 26 27  2  0
 10 28  1  0
 28 29  2  0
  6  1  1  0
 29  7  1  0
 21 12  1  0
 19 14  1  0
 27 22  1  0
M  END
>  <pIC50>  (740) 
4.89

>  <ChEMBL_ID>  (740) 
CHEMBL3780571

>  <document_journal>  (740) 
MedChemComm

>  <bao_endpoint>  (740) 
BAO_0000190

>  <potential_duplicate>  (740) 
None

>  <uo_units>  (740) 
UO_0000065

>  <canonical_smiles>  (740) 
C1CCN(CC1)c2ccc(Nc3cc4ncc(nc4cn3)c5ccccc5)cc2

>  <parent_molecule_chembl_id>  (740) 
CHEMBL3780571

>  <assay_type>  (740) 
B

>  <src_id>  (740) 
1

>  <ligand_efficiency>  (740) 
None

>  <standard_flag>  (740) 
True

>  <molecule_chembl_id>  (740) 
CHEMBL3780571

>  <target_organism>  (740) 
Homo sapiens

>  <standard_units>  (740) 
nM

>  <record_id>  (740) 
2763699

>  <document_chembl_id>  (740) 
CHEMBL3779774

>  <bao_format>  (740) 
None

>  <data_validity_description>  (740) 
None

>  <activity_id>  (740) 
16517216

>  <standard_type>  (740) 
IC50

>  <target_chembl_id>  (740) 
CHEMBL1862

>  <data_validity_comment>  (740) 
None

>  <published_value>  (740) 
12.9

>  <document_year>  (740) 
2016

>  <target_pref_name>  (740) 
Tyrosine-protein kinase ABL

>  <assay_chembl_id>  (740) 
CHEMBL3784517

>  <standard_relation>  (740) 
=

>  <assay_description>  (740) 
Inhibition of recombinant c-Abl (unknown origin) after 1 hr by Alphascreen assay

>  <published_relation>  (740) 
=

>  <standard_value>  (740) 
12900

>  <qudt_units>  (740) 
http://www.openphacts.org/units/Nanomolar

>  <target_tax_id>  (740) 
9606

>  <bao_label>  (740) 
None

>  <published_units>  (740) 
uM

>  <pchembl_value>  (740) 
4.89

>  <published_type>  (740) 
IC50

>  <activity_comment>  (740) 
None

$$$$

     RDKit          

 29 33  0  0  0  0  0  0  0  0999 V2000
    0.0000    0.0000    0.0000 C   0  0  0  0  0  0  0  0  0  0  0  0
    0.0000    0.0000    0.0000 C   0  0  0  0  0  0  0  0  0  0  0  0
    0.0000    0.0000    0.0000 C   0  0  0  0  0  0  0  0  0  0  0  0
    0.0000    0.0000    0.0000 N   0  0  0  0  0  0  0  0  0  0  0  0
    0.0000    0.0000    0.0000 C   0  0  0  0  0  0  0  0  0  0  0  0
    0.0000    0.0000    0.0000 C   0  0  0  0  0  0  0  0  0  0  0  0
    0.0000    0.0000    0.0000 C   0  0  0  0  0  0  0  0  0  0  0  0
    0.0000    0.0000    0.0000 C   0  0  0  0  0  0  0  0  0  0  0  0
    0.0000    0.0000    0.0000 C   0  0  0  0  0  0  0  0  0  0  0  0
    0.0000    0.0000    0.0000 C   0  0  0  0  0  0  0  0  0  0  0  0
    0.0000    0.0000    0.0000 N   0  0  0  0  0  0  0  0  0  0  0  0
    0.0000    0.0000    0.0000 C   0  0  0  0  0  0  0  0  0  0  0  0
    0.0000    0.0000    0.0000 C   0  0  0  0  0  0  0  0  0  0  0  0
    0.0000    0.0000    0.0000 N   0  0  0  0  0  0  0  0  0  0  0  0
    0.0000    0.0000    0.0000 C   0  0  0  0  0  0  0  0  0  0  0  0
    0.0000    0.0000    0.0000 C   0  0  0  0  0  0  0  0  0  0  0  0
    0.0000    0.0000    0.0000 N   0  0  0  0  0  0  0  0  0  0  0  0
    0.0000    0.0000    0.0000 C   0  0  0  0  0  0  0  0  0  0  0  0
    0.0000    0.0000    0.0000 C   0  0  0  0  0  0  0  0  0  0  0  0
    0.0000    0.0000    0.0000 N   0  0  0  0  0  0  0  0  0  0  0  0
    0.0000    0.0000    0.0000 C   0  0  0  0  0  0  0  0  0  0  0  0
    0.0000    0.0000    0.0000 C   0  0  0  0  0  0  0  0  0  0  0  0
    0.0000    0.0000    0.0000 C   0  0  0  0  0  0  0  0  0  0  0  0
    0.0000    0.0000    0.0000 C   0  0  0  0  0  0  0  0  0  0  0  0
    0.0000    0.0000    0.0000 C   0  0  0  0  0  0  0  0  0  0  0  0
    0.0000    0.0000    0.0000 C   0  0  0  0  0  0  0  0  0  0  0  0
    0.0000    0.0000    0.0000 C   0  0  0  0  0  0  0  0  0  0  0  0
    0.0000    0.0000    0.0000 C   0  0  0  0  0  0  0  0  0  0  0  0
    0.0000    0.0000    0.0000 C   0  0  0  0  0  0  0  0  0  0  0  0
  1  2  1  0
  2  3  1  0
  3  4  1  0
  4  5  1  0
  5  6  1  0
  4  7  1  0
  7  8  2  0
  8  9  1  0
  9 10  2  0
 10 11  1  0
 11 12  1  0
 12 13  2  0
 13 14  1  0
 14 15  2  0
 15 16  1  0
 16 17  2  0
 17 18  1  0
 18 19  2  0
 19 20  1  0
 20 21  2  0
 19 22  1  0
 22 23  2  0
 23 24  1  0
 24 25  2  0
 25 26  1  0
 26 27  2  0
 10 28  1  0
 28 29  2  0
  6  1  1  0
 29  7  1  0
 21 12  1  0
 21 16  1  0
 27 22  1  0
M  END
>  <pIC50>  (741) 
5.67

>  <ChEMBL_ID>  (741) 
CHEMBL3781989

>  <document_journal>  (741) 
MedChemComm

>  <bao_endpoint>  (741) 
BAO_0000190

>  <potential_duplicate>  (741) 
None

>  <uo_units>  (741) 
UO_0000065

>  <canonical_smiles>  (741) 
C1CCN(CC1)c2ccc(Nc3cncc4ncc(nc34)c5ccccc5)cc2

>  <parent_molecule_chembl_id>  (741) 
CHEMBL3781989

>  <assay_type>  (741) 
B

>  <src_id>  (741) 
1

>  <ligand_efficiency>  (741) 
None

>  <standard_flag>  (741) 
True

>  <molecule_chembl_id>  (741) 
CHEMBL3781989

>  <target_organism>  (741) 
Homo sapiens

>  <standard_units>  (741) 
nM

>  <record_id>  (741) 
2763700

>  <document_chembl_id>  (741) 
CHEMBL3779774

>  <bao_format>  (741) 
None

>  <data_validity_description>  (741) 
None

>  <activity_id>  (741) 
16517217

>  <standard_type>  (741) 
IC50

>  <target_chembl_id>  (741) 
CHEMBL1862

>  <data_validity_comment>  (741) 
None

>  <published_value>  (741) 
2.16

>  <document_year>  (741) 
2016

>  <target_pref_name>  (741) 
Tyrosine-protein kinase ABL

>  <assay_chembl_id>  (741) 
CHEMBL3784517

>  <standard_relation>  (741) 
=

>  <assay_description>  (741) 
Inhibition of recombinant c-Abl (unknown origin) after 1 hr by Alphascreen assay

>  <published_relation>  (741) 
=

>  <standard_value>  (741) 
2160

>  <qudt_units>  (741) 
http://www.openphacts.org/units/Nanomolar

>  <target_tax_id>  (741) 
9606

>  <bao_label>  (741) 
None

>  <published_units>  (741) 
uM

>  <pchembl_value>  (741) 
5.67

>  <published_type>  (741) 
IC50

>  <activity_comment>  (741) 
None

$$$$

     RDKit          

 29 33  0  0  0  0  0  0  0  0999 V2000
    0.0000    0.0000    0.0000 C   0  0  0  0  0  0  0  0  0  0  0  0
    0.0000    0.0000    0.0000 C   0  0  0  0  0  0  0  0  0  0  0  0
    0.0000    0.0000    0.0000 N   0  0  0  0  0  0  0  0  0  0  0  0
    0.0000    0.0000    0.0000 C   0  0  0  0  0  0  0  0  0  0  0  0
    0.0000    0.0000    0.0000 C   0  0  0  0  0  0  0  0  0  0  0  0
    0.0000    0.0000    0.0000 O   0  0  0  0  0  0  0  0  0  0  0  0
    0.0000    0.0000    0.0000 C   0  0  0  0  0  0  0  0  0  0  0  0
    0.0000    0.0000    0.0000 C   0  0  0  0  0  0  0  0  0  0  0  0
    0.0000    0.0000    0.0000 C   0  0  0  0  0  0  0  0  0  0  0  0
    0.0000    0.0000    0.0000 C   0  0  0  0  0  0  0  0  0  0  0  0
    0.0000    0.0000    0.0000 N   0  0  0  0  0  0  0  0  0  0  0  0
    0.0000    0.0000    0.0000 C   0  0  0  0  0  0  0  0  0  0  0  0
    0.0000    0.0000    0.0000 C   0  0  0  0  0  0  0  0  0  0  0  0
    0.0000    0.0000    0.0000 N   0  0  0  0  0  0  0  0  0  0  0  0
    0.0000    0.0000    0.0000 C   0  0  0  0  0  0  0  0  0  0  0  0
    0.0000    0.0000    0.0000 C   0  0  0  0  0  0  0  0  0  0  0  0
    0.0000    0.0000    0.0000 N   0  0  0  0  0  0  0  0  0  0  0  0
    0.0000    0.0000    0.0000 C   0  0  0  0  0  0  0  0  0  0  0  0
    0.0000    0.0000    0.0000 C   0  0  0  0  0  0  0  0  0  0  0  0
    0.0000    0.0000    0.0000 N   0  0  0  0  0  0  0  0  0  0  0  0
    0.0000    0.0000    0.0000 C   0  0  0  0  0  0  0  0  0  0  0  0
    0.0000    0.0000    0.0000 C   0  0  0  0  0  0  0  0  0  0  0  0
    0.0000    0.0000    0.0000 C   0  0  0  0  0  0  0  0  0  0  0  0
    0.0000    0.0000    0.0000 C   0  0  0  0  0  0  0  0  0  0  0  0
    0.0000    0.0000    0.0000 C   0  0  0  0  0  0  0  0  0  0  0  0
    0.0000    0.0000    0.0000 C   0  0  0  0  0  0  0  0  0  0  0  0
    0.0000    0.0000    0.0000 C   0  0  0  0  0  0  0  0  0  0  0  0
    0.0000    0.0000    0.0000 C   0  0  0  0  0  0  0  0  0  0  0  0
    0.0000    0.0000    0.0000 C   0  0  0  0  0  0  0  0  0  0  0  0
  1  2  1  0
  2  3  1  0
  3  4  1  0
  4  5  1  0
  5  6  1  0
  3  7  1  0
  7  8  2  0
  8  9  1  0
  9 10  2  0
 10 11  1  0
 11 12  1  0
 12 13  2  0
 13 14  1  0
 14 15  2  0
 15 16  1  0
 16 17  2  0
 17 18  1  0
 18 19  2  0
 19 20  1  0
 20 21  2  0
 19 22  1  0
 22 23  2  0
 23 24  1  0
 24 25  2  0
 25 26  1  0
 26 27  2  0
 10 28  1  0
 28 29  2  0
  6  1  1  0
 29  7  1  0
 21 12  1  0
 21 16  1  0
 27 22  1  0
M  END
>  <pIC50>  (742) 
5.28

>  <ChEMBL_ID>  (742) 
CHEMBL3780632

>  <document_journal>  (742) 
MedChemComm

>  <bao_endpoint>  (742) 
BAO_0000190

>  <potential_duplicate>  (742) 
None

>  <uo_units>  (742) 
UO_0000065

>  <canonical_smiles>  (742) 
C1CN(CCO1)c2ccc(Nc3cncc4ncc(nc34)c5ccccc5)cc2

>  <parent_molecule_chembl_id>  (742) 
CHEMBL3780632

>  <assay_type>  (742) 
B

>  <src_id>  (742) 
1

>  <ligand_efficiency>  (742) 
None

>  <standard_flag>  (742) 
True

>  <molecule_chembl_id>  (742) 
CHEMBL3780632

>  <target_organism>  (742) 
Homo sapiens

>  <standard_units>  (742) 
nM

>  <record_id>  (742) 
2763701

>  <document_chembl_id>  (742) 
CHEMBL3779774

>  <bao_format>  (742) 
None

>  <data_validity_description>  (742) 
None

>  <activity_id>  (742) 
16517218

>  <standard_type>  (742) 
IC50

>  <target_chembl_id>  (742) 
CHEMBL1862

>  <data_validity_comment>  (742) 
None

>  <published_value>  (742) 
5.27

>  <document_year>  (742) 
2016

>  <target_pref_name>  (742) 
Tyrosine-protein kinase ABL

>  <assay_chembl_id>  (742) 
CHEMBL3784517

>  <standard_relation>  (742) 
=

>  <assay_description>  (742) 
Inhibition of recombinant c-Abl (unknown origin) after 1 hr by Alphascreen assay

>  <published_relation>  (742) 
=

>  <standard_value>  (742) 
5270

>  <qudt_units>  (742) 
http://www.openphacts.org/units/Nanomolar

>  <target_tax_id>  (742) 
9606

>  <bao_label>  (742) 
None

>  <published_units>  (742) 
uM

>  <pchembl_value>  (742) 
5.28

>  <published_type>  (742) 
IC50

>  <activity_comment>  (742) 
None

$$$$

     RDKit          

 29 32  0  0  0  0  0  0  0  0999 V2000
    0.0000    0.0000    0.0000 C   0  0  0  0  0  0  0  0  0  0  0  0
    0.0000    0.0000    0.0000 O   0  0  0  0  0  0  0  0  0  0  0  0
    0.0000    0.0000    0.0000 C   0  0  0  0  0  0  0  0  0  0  0  0
    0.0000    0.0000    0.0000 C   0  0  0  0  0  0  0  0  0  0  0  0
    0.0000    0.0000    0.0000 C   0  0  0  0  0  0  0  0  0  0  0  0
    0.0000    0.0000    0.0000 C   0  0  0  0  0  0  0  0  0  0  0  0
    0.0000    0.0000    0.0000 C   0  0  0  0  0  0  0  0  0  0  0  0
    0.0000    0.0000    0.0000 C   0  0  0  0  0  0  0  0  0  0  0  0
    0.0000    0.0000    0.0000 C   0  0  0  0  0  0  0  0  0  0  0  0
    0.0000    0.0000    0.0000 C   0  0  0  0  0  0  0  0  0  0  0  0
    0.0000    0.0000    0.0000 N   0  0  0  0  0  0  0  0  0  0  0  0
    0.0000    0.0000    0.0000 C   0  0  0  0  0  0  0  0  0  0  0  0
    0.0000    0.0000    0.0000 C   0  0  0  0  0  0  0  0  0  0  0  0
    0.0000    0.0000    0.0000 N   0  0  0  0  0  0  0  0  0  0  0  0
    0.0000    0.0000    0.0000 C   0  0  0  0  0  0  0  0  0  0  0  0
    0.0000    0.0000    0.0000 C   0  0  0  0  0  0  0  0  0  0  0  0
    0.0000    0.0000    0.0000 N   0  0  0  0  0  0  0  0  0  0  0  0
    0.0000    0.0000    0.0000 C   0  0  0  0  0  0  0  0  0  0  0  0
    0.0000    0.0000    0.0000 C   0  0  0  0  0  0  0  0  0  0  0  0
    0.0000    0.0000    0.0000 C   0  0  0  0  0  0  0  0  0  0  0  0
    0.0000    0.0000    0.0000 O   0  0  0  0  0  0  0  0  0  0  0  0
    0.0000    0.0000    0.0000 C   0  0  0  0  0  0  0  0  0  0  0  0
    0.0000    0.0000    0.0000 C   0  0  0  0  0  0  0  0  0  0  0  0
    0.0000    0.0000    0.0000 C   0  0  0  0  0  0  0  0  0  0  0  0
    0.0000    0.0000    0.0000 C   0  0  0  0  0  0  0  0  0  0  0  0
    0.0000    0.0000    0.0000 O   0  0  0  0  0  0  0  0  0  0  0  0
    0.0000    0.0000    0.0000 C   0  0  0  0  0  0  0  0  0  0  0  0
    0.0000    0.0000    0.0000 C   0  0  0  0  0  0  0  0  0  0  0  0
    0.0000    0.0000    0.0000 N   0  0  0  0  0  0  0  0  0  0  0  0
  1  2  1  0
  2  3  1  0
  3  4  2  0
  4  5  1  0
  5  6  2  0
  6  7  1  0
  7  8  2  0
  6  9  1  0
  9 10  2  0
 10 11  1  0
 11 12  2  0
 12 13  1  0
 13 14  2  0
 14 15  1  0
 15 16  2  0
 16 17  1  0
 17 18  1  0
 18 19  2  0
 19 20  1  0
 20 21  1  0
 21 22  1  0
 20 23  2  0
 23 24  1  0
 24 25  2  0
 25 26  1  0
 26 27  1  0
 16 28  1  0
 28 29  2  0
  8  3  1  0
 29  9  1  0
 28 12  1  0
 25 18  1  0
M  END
>  <pIC50>  (743) 
5.86

>  <ChEMBL_ID>  (743) 
CHEMBL3782019

>  <document_journal>  (743) 
MedChemComm

>  <bao_endpoint>  (743) 
BAO_0000190

>  <potential_duplicate>  (743) 
None

>  <uo_units>  (743) 
UO_0000065

>  <canonical_smiles>  (743) 
COc1ccc(cc1)c2cnc3cncc(Nc4cc(OC)ccc4OC)c3n2

>  <parent_molecule_chembl_id>  (743) 
CHEMBL3782019

>  <assay_type>  (743) 
B

>  <src_id>  (743) 
1

>  <ligand_efficiency>  (743) 
None

>  <standard_flag>  (743) 
True

>  <molecule_chembl_id>  (743) 
CHEMBL3782019

>  <target_organism>  (743) 
Homo sapiens

>  <standard_units>  (743) 
nM

>  <record_id>  (743) 
2763702

>  <document_chembl_id>  (743) 
CHEMBL3779774

>  <bao_format>  (743) 
None

>  <data_validity_description>  (743) 
None

>  <activity_id>  (743) 
16517219

>  <standard_type>  (743) 
IC50

>  <target_chembl_id>  (743) 
CHEMBL1862

>  <data_validity_comment>  (743) 
None

>  <published_value>  (743) 
1.37

>  <document_year>  (743) 
2016

>  <target_pref_name>  (743) 
Tyrosine-protein kinase ABL

>  <assay_chembl_id>  (743) 
CHEMBL3784517

>  <standard_relation>  (743) 
=

>  <assay_description>  (743) 
Inhibition of recombinant c-Abl (unknown origin) after 1 hr by Alphascreen assay

>  <published_relation>  (743) 
=

>  <standard_value>  (743) 
1370

>  <qudt_units>  (743) 
http://www.openphacts.org/units/Nanomolar

>  <target_tax_id>  (743) 
9606

>  <bao_label>  (743) 
None

>  <published_units>  (743) 
uM

>  <pchembl_value>  (743) 
5.86

>  <published_type>  (743) 
IC50

>  <activity_comment>  (743) 
None

$$$$

     RDKit          

 31 35  0  0  0  0  0  0  0  0999 V2000
    0.0000    0.0000    0.0000 C   0  0  0  0  0  0  0  0  0  0  0  0
    0.0000    0.0000    0.0000 O   0  0  0  0  0  0  0  0  0  0  0  0
    0.0000    0.0000    0.0000 C   0  0  0  0  0  0  0  0  0  0  0  0
    0.0000    0.0000    0.0000 C   0  0  0  0  0  0  0  0  0  0  0  0
    0.0000    0.0000    0.0000 C   0  0  0  0  0  0  0  0  0  0  0  0
    0.0000    0.0000    0.0000 C   0  0  0  0  0  0  0  0  0  0  0  0
    0.0000    0.0000    0.0000 C   0  0  0  0  0  0  0  0  0  0  0  0
    0.0000    0.0000    0.0000 C   0  0  0  0  0  0  0  0  0  0  0  0
    0.0000    0.0000    0.0000 C   0  0  0  0  0  0  0  0  0  0  0  0
    0.0000    0.0000    0.0000 C   0  0  0  0  0  0  0  0  0  0  0  0
    0.0000    0.0000    0.0000 N   0  0  0  0  0  0  0  0  0  0  0  0
    0.0000    0.0000    0.0000 C   0  0  0  0  0  0  0  0  0  0  0  0
    0.0000    0.0000    0.0000 C   0  0  0  0  0  0  0  0  0  0  0  0
    0.0000    0.0000    0.0000 N   0  0  0  0  0  0  0  0  0  0  0  0
    0.0000    0.0000    0.0000 C   0  0  0  0  0  0  0  0  0  0  0  0
    0.0000    0.0000    0.0000 C   0  0  0  0  0  0  0  0  0  0  0  0
    0.0000    0.0000    0.0000 N   0  0  0  0  0  0  0  0  0  0  0  0
    0.0000    0.0000    0.0000 C   0  0  0  0  0  0  0  0  0  0  0  0
    0.0000    0.0000    0.0000 C   0  0  0  0  0  0  0  0  0  0  0  0
    0.0000    0.0000    0.0000 C   0  0  0  0  0  0  0  0  0  0  0  0
    0.0000    0.0000    0.0000 C   0  0  0  0  0  0  0  0  0  0  0  0
    0.0000    0.0000    0.0000 C   0  0  0  0  0  0  0  0  0  0  0  0
    0.0000    0.0000    0.0000 C   0  0  0  0  0  0  0  0  0  0  0  0
    0.0000    0.0000    0.0000 N   0  0  0  0  0  0  0  0  0  0  0  0
    0.0000    0.0000    0.0000 C   0  0  0  0  0  0  0  0  0  0  0  0
    0.0000    0.0000    0.0000 C   0  0  0  0  0  0  0  0  0  0  0  0
    0.0000    0.0000    0.0000 C   0  0  0  0  0  0  0  0  0  0  0  0
    0.0000    0.0000    0.0000 C   0  0  0  0  0  0  0  0  0  0  0  0
    0.0000    0.0000    0.0000 C   0  0  0  0  0  0  0  0  0  0  0  0
    0.0000    0.0000    0.0000 C   0  0  0  0  0  0  0  0  0  0  0  0
    0.0000    0.0000    0.0000 N   0  0  0  0  0  0  0  0  0  0  0  0
  1  2  1  0
  2  3  1  0
  3  4  2  0
  4  5  1  0
  5  6  2  0
  6  7  1  0
  7  8  2  0
  6  9  1  0
  9 10  2  0
 10 11  1  0
 11 12  2  0
 12 13  1  0
 13 14  2  0
 14 15  1  0
 15 16  2  0
 16 17  1  0
 17 18  1  0
 18 19  2  0
 19 20  1  0
 20 21  2  0
 21 22  1  0
 22 23  2  0
 21 24  1  0
 24 25  1  0
 25 26  1  0
 26 27  1  0
 27 28  1  0
 28 29  1  0
 16 30  1  0
 30 31  2  0
  8  3  1  0
 31  9  1  0
 30 12  1  0
 23 18  1  0
 29 24  1  0
M  END
>  <pIC50>  (744) 
5.64

>  <ChEMBL_ID>  (744) 
CHEMBL3780971

>  <document_journal>  (744) 
MedChemComm

>  <bao_endpoint>  (744) 
BAO_0000190

>  <potential_duplicate>  (744) 
None

>  <uo_units>  (744) 
UO_0000065

>  <canonical_smiles>  (744) 
COc1ccc(cc1)c2cnc3cncc(Nc4ccc(cc4)N5CCCCC5)c3n2

>  <parent_molecule_chembl_id>  (744) 
CHEMBL3780971

>  <assay_type>  (744) 
B

>  <src_id>  (744) 
1

>  <ligand_efficiency>  (744) 
None

>  <standard_flag>  (744) 
True

>  <molecule_chembl_id>  (744) 
CHEMBL3780971

>  <target_organism>  (744) 
Homo sapiens

>  <standard_units>  (744) 
nM

>  <record_id>  (744) 
2763703

>  <document_chembl_id>  (744) 
CHEMBL3779774

>  <bao_format>  (744) 
None

>  <data_validity_description>  (744) 
None

>  <activity_id>  (744) 
16517220

>  <standard_type>  (744) 
IC50

>  <target_chembl_id>  (744) 
CHEMBL1862

>  <data_validity_comment>  (744) 
None

>  <published_value>  (744) 
2.27

>  <document_year>  (744) 
2016

>  <target_pref_name>  (744) 
Tyrosine-protein kinase ABL

>  <assay_chembl_id>  (744) 
CHEMBL3784517

>  <standard_relation>  (744) 
=

>  <assay_description>  (744) 
Inhibition of recombinant c-Abl (unknown origin) after 1 hr by Alphascreen assay

>  <published_relation>  (744) 
=

>  <standard_value>  (744) 
2270

>  <qudt_units>  (744) 
http://www.openphacts.org/units/Nanomolar

>  <target_tax_id>  (744) 
9606

>  <bao_label>  (744) 
None

>  <published_units>  (744) 
uM

>  <pchembl_value>  (744) 
5.64

>  <published_type>  (744) 
IC50

>  <activity_comment>  (744) 
None

$$$$

     RDKit          

 31 35  0  0  0  0  0  0  0  0999 V2000
    0.0000    0.0000    0.0000 C   0  0  0  0  0  0  0  0  0  0  0  0
    0.0000    0.0000    0.0000 O   0  0  0  0  0  0  0  0  0  0  0  0
    0.0000    0.0000    0.0000 C   0  0  0  0  0  0  0  0  0  0  0  0
    0.0000    0.0000    0.0000 C   0  0  0  0  0  0  0  0  0  0  0  0
    0.0000    0.0000    0.0000 C   0  0  0  0  0  0  0  0  0  0  0  0
    0.0000    0.0000    0.0000 C   0  0  0  0  0  0  0  0  0  0  0  0
    0.0000    0.0000    0.0000 C   0  0  0  0  0  0  0  0  0  0  0  0
    0.0000    0.0000    0.0000 C   0  0  0  0  0  0  0  0  0  0  0  0
    0.0000    0.0000    0.0000 C   0  0  0  0  0  0  0  0  0  0  0  0
    0.0000    0.0000    0.0000 C   0  0  0  0  0  0  0  0  0  0  0  0
    0.0000    0.0000    0.0000 N   0  0  0  0  0  0  0  0  0  0  0  0
    0.0000    0.0000    0.0000 C   0  0  0  0  0  0  0  0  0  0  0  0
    0.0000    0.0000    0.0000 C   0  0  0  0  0  0  0  0  0  0  0  0
    0.0000    0.0000    0.0000 N   0  0  0  0  0  0  0  0  0  0  0  0
    0.0000    0.0000    0.0000 C   0  0  0  0  0  0  0  0  0  0  0  0
    0.0000    0.0000    0.0000 C   0  0  0  0  0  0  0  0  0  0  0  0
    0.0000    0.0000    0.0000 N   0  0  0  0  0  0  0  0  0  0  0  0
    0.0000    0.0000    0.0000 C   0  0  0  0  0  0  0  0  0  0  0  0
    0.0000    0.0000    0.0000 C   0  0  0  0  0  0  0  0  0  0  0  0
    0.0000    0.0000    0.0000 C   0  0  0  0  0  0  0  0  0  0  0  0
    0.0000    0.0000    0.0000 C   0  0  0  0  0  0  0  0  0  0  0  0
    0.0000    0.0000    0.0000 C   0  0  0  0  0  0  0  0  0  0  0  0
    0.0000    0.0000    0.0000 C   0  0  0  0  0  0  0  0  0  0  0  0
    0.0000    0.0000    0.0000 N   0  0  0  0  0  0  0  0  0  0  0  0
    0.0000    0.0000    0.0000 C   0  0  0  0  0  0  0  0  0  0  0  0
    0.0000    0.0000    0.0000 C   0  0  0  0  0  0  0  0  0  0  0  0
    0.0000    0.0000    0.0000 O   0  0  0  0  0  0  0  0  0  0  0  0
    0.0000    0.0000    0.0000 C   0  0  0  0  0  0  0  0  0  0  0  0
    0.0000    0.0000    0.0000 C   0  0  0  0  0  0  0  0  0  0  0  0
    0.0000    0.0000    0.0000 C   0  0  0  0  0  0  0  0  0  0  0  0
    0.0000    0.0000    0.0000 N   0  0  0  0  0  0  0  0  0  0  0  0
  1  2  1  0
  2  3  1  0
  3  4  2  0
  4  5  1  0
  5  6  2  0
  6  7  1  0
  7  8  2  0
  6  9  1  0
  9 10  2  0
 10 11  1  0
 11 12  2  0
 12 13  1  0
 13 14  2  0
 14 15  1  0
 15 16  2  0
 16 17  1  0
 17 18  1  0
 18 19  2  0
 19 20  1  0
 20 21  2  0
 21 22  1  0
 22 23  2  0
 21 24  1  0
 24 25  1  0
 25 26  1  0
 26 27  1  0
 27 28  1  0
 28 29  1  0
 16 30  1  0
 30 31  2  0
  8  3  1  0
 31  9  1  0
 30 12  1  0
 23 18  1  0
 29 24  1  0
M  END
>  <pIC50>  (745) 
5.6

>  <ChEMBL_ID>  (745) 
CHEMBL3781696

>  <document_journal>  (745) 
MedChemComm

>  <bao_endpoint>  (745) 
BAO_0000190

>  <potential_duplicate>  (745) 
None

>  <uo_units>  (745) 
UO_0000065

>  <canonical_smiles>  (745) 
COc1ccc(cc1)c2cnc3cncc(Nc4ccc(cc4)N5CCOCC5)c3n2

>  <parent_molecule_chembl_id>  (745) 
CHEMBL3781696

>  <assay_type>  (745) 
B

>  <src_id>  (745) 
1

>  <ligand_efficiency>  (745) 
None

>  <standard_flag>  (745) 
True

>  <molecule_chembl_id>  (745) 
CHEMBL3781696

>  <target_organism>  (745) 
Homo sapiens

>  <standard_units>  (745) 
nM

>  <record_id>  (745) 
2763704

>  <document_chembl_id>  (745) 
CHEMBL3779774

>  <bao_format>  (745) 
None

>  <data_validity_description>  (745) 
None

>  <activity_id>  (745) 
16517221

>  <standard_type>  (745) 
IC50

>  <target_chembl_id>  (745) 
CHEMBL1862

>  <data_validity_comment>  (745) 
None

>  <published_value>  (745) 
2.49

>  <document_year>  (745) 
2016

>  <target_pref_name>  (745) 
Tyrosine-protein kinase ABL

>  <assay_chembl_id>  (745) 
CHEMBL3784517

>  <standard_relation>  (745) 
=

>  <assay_description>  (745) 
Inhibition of recombinant c-Abl (unknown origin) after 1 hr by Alphascreen assay

>  <published_relation>  (745) 
=

>  <standard_value>  (745) 
2490

>  <qudt_units>  (745) 
http://www.openphacts.org/units/Nanomolar

>  <target_tax_id>  (745) 
9606

>  <bao_label>  (745) 
None

>  <published_units>  (745) 
uM

>  <pchembl_value>  (745) 
5.6

>  <published_type>  (745) 
IC50

>  <activity_comment>  (745) 
None

$$$$

     RDKit          

 29 33  0  0  0  0  0  0  0  0999 V2000
    0.0000    0.0000    0.0000 C   0  0  0  0  0  0  0  0  0  0  0  0
    0.0000    0.0000    0.0000 C   0  0  0  0  0  0  0  0  0  0  0  0
    0.0000    0.0000    0.0000 C   0  0  0  0  0  0  0  0  0  0  0  0
    0.0000    0.0000    0.0000 N   0  0  0  0  0  0  0  0  0  0  0  0
    0.0000    0.0000    0.0000 C   0  0  0  0  0  0  0  0  0  0  0  0
    0.0000    0.0000    0.0000 C   0  0  0  0  0  0  0  0  0  0  0  0
    0.0000    0.0000    0.0000 C   0  0  0  0  0  0  0  0  0  0  0  0
    0.0000    0.0000    0.0000 C   0  0  0  0  0  0  0  0  0  0  0  0
    0.0000    0.0000    0.0000 C   0  0  0  0  0  0  0  0  0  0  0  0
    0.0000    0.0000    0.0000 C   0  0  0  0  0  0  0  0  0  0  0  0
    0.0000    0.0000    0.0000 C   0  0  0  0  0  0  0  0  0  0  0  0
    0.0000    0.0000    0.0000 C   0  0  0  0  0  0  0  0  0  0  0  0
    0.0000    0.0000    0.0000 C   0  0  0  0  0  0  0  0  0  0  0  0
    0.0000    0.0000    0.0000 C   0  0  0  0  0  0  0  0  0  0  0  0
    0.0000    0.0000    0.0000 N   0  0  0  0  0  0  0  0  0  0  0  0
    0.0000    0.0000    0.0000 C   0  0  0  0  0  0  0  0  0  0  0  0
    0.0000    0.0000    0.0000 C   0  0  0  0  0  0  0  0  0  0  0  0
    0.0000    0.0000    0.0000 N   0  0  0  0  0  0  0  0  0  0  0  0
    0.0000    0.0000    0.0000 C   0  0  0  0  0  0  0  0  0  0  0  0
    0.0000    0.0000    0.0000 C   0  0  0  0  0  0  0  0  0  0  0  0
    0.0000    0.0000    0.0000 N   0  0  0  0  0  0  0  0  0  0  0  0
    0.0000    0.0000    0.0000 C   0  0  0  0  0  0  0  0  0  0  0  0
    0.0000    0.0000    0.0000 C   0  0  0  0  0  0  0  0  0  0  0  0
    0.0000    0.0000    0.0000 C   0  0  0  0  0  0  0  0  0  0  0  0
    0.0000    0.0000    0.0000 C   0  0  0  0  0  0  0  0  0  0  0  0
    0.0000    0.0000    0.0000 C   0  0  0  0  0  0  0  0  0  0  0  0
    0.0000    0.0000    0.0000 C   0  0  0  0  0  0  0  0  0  0  0  0
    0.0000    0.0000    0.0000 C   0  0  0  0  0  0  0  0  0  0  0  0
    0.0000    0.0000    0.0000 N   0  0  0  0  0  0  0  0  0  0  0  0
  1  2  1  0
  2  3  1  0
  3  4  1  0
  4  5  1  0
  5  6  1  0
  4  7  1  0
  7  8  2  0
  8  9  1  0
  9 10  2  0
 10 11  1  0
 11 12  2  0
 10 13  1  0
 13 14  2  0
 14 15  1  0
 15 16  2  0
 16 17  1  0
 17 18  2  0
 18 19  1  0
 19 20  2  0
 20 21  1  0
 21 22  1  0
 22 23  2  0
 23 24  1  0
 24 25  2  0
 25 26  1  0
 26 27  2  0
 20 28  1  0
 28 29  2  0
  6  1  1  0
 12  7  1  0
 29 13  1  0
 28 16  1  0
 27 22  1  0
M  END
>  <pIC50>  (746) 
5.17

>  <ChEMBL_ID>  (746) 
CHEMBL3781028

>  <document_journal>  (746) 
MedChemComm

>  <bao_endpoint>  (746) 
BAO_0000190

>  <potential_duplicate>  (746) 
None

>  <uo_units>  (746) 
UO_0000065

>  <canonical_smiles>  (746) 
C1CCN(CC1)c2ccc(cc2)c3cnc4cncc(Nc5ccccc5)c4n3

>  <parent_molecule_chembl_id>  (746) 
CHEMBL3781028

>  <assay_type>  (746) 
B

>  <src_id>  (746) 
1

>  <ligand_efficiency>  (746) 
None

>  <standard_flag>  (746) 
True

>  <molecule_chembl_id>  (746) 
CHEMBL3781028

>  <target_organism>  (746) 
Homo sapiens

>  <standard_units>  (746) 
nM

>  <record_id>  (746) 
2763705

>  <document_chembl_id>  (746) 
CHEMBL3779774

>  <bao_format>  (746) 
None

>  <data_validity_description>  (746) 
None

>  <activity_id>  (746) 
16517222

>  <standard_type>  (746) 
IC50

>  <target_chembl_id>  (746) 
CHEMBL1862

>  <data_validity_comment>  (746) 
None

>  <published_value>  (746) 
6.84

>  <document_year>  (746) 
2016

>  <target_pref_name>  (746) 
Tyrosine-protein kinase ABL

>  <assay_chembl_id>  (746) 
CHEMBL3784517

>  <standard_relation>  (746) 
=

>  <assay_description>  (746) 
Inhibition of recombinant c-Abl (unknown origin) after 1 hr by Alphascreen assay

>  <published_relation>  (746) 
=

>  <standard_value>  (746) 
6840

>  <qudt_units>  (746) 
http://www.openphacts.org/units/Nanomolar

>  <target_tax_id>  (746) 
9606

>  <bao_label>  (746) 
None

>  <published_units>  (746) 
uM

>  <pchembl_value>  (746) 
5.17

>  <published_type>  (746) 
IC50

>  <activity_comment>  (746) 
None

$$$$

     RDKit          

 31 35  0  0  0  0  0  0  0  0999 V2000
    0.0000    0.0000    0.0000 C   0  0  0  0  0  0  0  0  0  0  0  0
    0.0000    0.0000    0.0000 O   0  0  0  0  0  0  0  0  0  0  0  0
    0.0000    0.0000    0.0000 C   0  0  0  0  0  0  0  0  0  0  0  0
    0.0000    0.0000    0.0000 C   0  0  0  0  0  0  0  0  0  0  0  0
    0.0000    0.0000    0.0000 C   0  0  0  0  0  0  0  0  0  0  0  0
    0.0000    0.0000    0.0000 C   0  0  0  0  0  0  0  0  0  0  0  0
    0.0000    0.0000    0.0000 C   0  0  0  0  0  0  0  0  0  0  0  0
    0.0000    0.0000    0.0000 N   0  0  0  0  0  0  0  0  0  0  0  0
    0.0000    0.0000    0.0000 C   0  0  0  0  0  0  0  0  0  0  0  0
    0.0000    0.0000    0.0000 C   0  0  0  0  0  0  0  0  0  0  0  0
    0.0000    0.0000    0.0000 N   0  0  0  0  0  0  0  0  0  0  0  0
    0.0000    0.0000    0.0000 C   0  0  0  0  0  0  0  0  0  0  0  0
    0.0000    0.0000    0.0000 C   0  0  0  0  0  0  0  0  0  0  0  0
    0.0000    0.0000    0.0000 N   0  0  0  0  0  0  0  0  0  0  0  0
    0.0000    0.0000    0.0000 C   0  0  0  0  0  0  0  0  0  0  0  0
    0.0000    0.0000    0.0000 C   0  0  0  0  0  0  0  0  0  0  0  0
    0.0000    0.0000    0.0000 N   0  0  0  0  0  0  0  0  0  0  0  0
    0.0000    0.0000    0.0000 C   0  0  0  0  0  0  0  0  0  0  0  0
    0.0000    0.0000    0.0000 C   0  0  0  0  0  0  0  0  0  0  0  0
    0.0000    0.0000    0.0000 C   0  0  0  0  0  0  0  0  0  0  0  0
    0.0000    0.0000    0.0000 C   0  0  0  0  0  0  0  0  0  0  0  0
    0.0000    0.0000    0.0000 C   0  0  0  0  0  0  0  0  0  0  0  0
    0.0000    0.0000    0.0000 C   0  0  0  0  0  0  0  0  0  0  0  0
    0.0000    0.0000    0.0000 C   0  0  0  0  0  0  0  0  0  0  0  0
    0.0000    0.0000    0.0000 N   0  0  0  0  0  0  0  0  0  0  0  0
    0.0000    0.0000    0.0000 C   0  0  0  0  0  0  0  0  0  0  0  0
    0.0000    0.0000    0.0000 C   0  0  0  0  0  0  0  0  0  0  0  0
    0.0000    0.0000    0.0000 C   0  0  0  0  0  0  0  0  0  0  0  0
    0.0000    0.0000    0.0000 C   0  0  0  0  0  0  0  0  0  0  0  0
    0.0000    0.0000    0.0000 C   0  0  0  0  0  0  0  0  0  0  0  0
    0.0000    0.0000    0.0000 C   0  0  0  0  0  0  0  0  0  0  0  0
  1  2  1  0
  2  3  1  0
  3  4  2  0
  4  5  1  0
  5  6  2  0
  6  7  1  0
  7  8  1  0
  8  9  1  0
  9 10  2  0
 10 11  1  0
 11 12  2  0
 12 13  1  0
 13 14  2  0
 14 15  1  0
 15 16  2  0
 16 17  1  0
 17 18  2  0
 16 19  1  0
 19 20  2  0
 20 21  1  0
 21 22  2  0
 22 23  1  0
 23 24  2  0
 22 25  1  0
 25 26  1  0
 26 27  1  0
 27 28  1  0
 28 29  1  0
 29 30  1  0
  7 31  2  0
 31  3  1  0
 18  9  1  0
 18 13  1  0
 24 19  1  0
 30 25  1  0
M  END
>  <pIC50>  (747) 
5.11

>  <ChEMBL_ID>  (747) 
CHEMBL3781610

>  <document_journal>  (747) 
MedChemComm

>  <bao_endpoint>  (747) 
BAO_0000190

>  <potential_duplicate>  (747) 
None

>  <uo_units>  (747) 
UO_0000065

>  <canonical_smiles>  (747) 
COc1cccc(Nc2cncc3ncc(nc23)c4ccc(cc4)N5CCCCC5)c1

>  <parent_molecule_chembl_id>  (747) 
CHEMBL3781610

>  <assay_type>  (747) 
B

>  <src_id>  (747) 
1

>  <ligand_efficiency>  (747) 
None

>  <standard_flag>  (747) 
True

>  <molecule_chembl_id>  (747) 
CHEMBL3781610

>  <target_organism>  (747) 
Homo sapiens

>  <standard_units>  (747) 
nM

>  <record_id>  (747) 
2763706

>  <document_chembl_id>  (747) 
CHEMBL3779774

>  <bao_format>  (747) 
None

>  <data_validity_description>  (747) 
None

>  <activity_id>  (747) 
16517223

>  <standard_type>  (747) 
IC50

>  <target_chembl_id>  (747) 
CHEMBL1862

>  <data_validity_comment>  (747) 
None

>  <published_value>  (747) 
7.71

>  <document_year>  (747) 
2016

>  <target_pref_name>  (747) 
Tyrosine-protein kinase ABL

>  <assay_chembl_id>  (747) 
CHEMBL3784517

>  <standard_relation>  (747) 
=

>  <assay_description>  (747) 
Inhibition of recombinant c-Abl (unknown origin) after 1 hr by Alphascreen assay

>  <published_relation>  (747) 
=

>  <standard_value>  (747) 
7710

>  <qudt_units>  (747) 
http://www.openphacts.org/units/Nanomolar

>  <target_tax_id>  (747) 
9606

>  <bao_label>  (747) 
None

>  <published_units>  (747) 
uM

>  <pchembl_value>  (747) 
5.11

>  <published_type>  (747) 
IC50

>  <activity_comment>  (747) 
None

$$$$

     RDKit          

 26 30  0  0  0  0  0  0  0  0999 V2000
    0.0000    0.0000    0.0000 N   0  0  0  0  0  0  0  0  0  0  0  0
    0.0000    0.0000    0.0000 C   0  0  0  0  0  0  0  0  0  0  0  0
    0.0000    0.0000    0.0000 N   0  0  0  0  0  0  0  0  0  0  0  0
    0.0000    0.0000    0.0000 C   0  0  0  0  0  0  0  0  0  0  0  0
    0.0000    0.0000    0.0000 N   0  0  0  0  0  0  0  0  0  0  0  0
    0.0000    0.0000    0.0000 C   0  0  0  0  0  0  0  0  0  0  0  0
    0.0000    0.0000    0.0000 C   0  0  0  0  0  0  0  0  0  0  0  0
    0.0000    0.0000    0.0000 C   0  0  0  0  0  0  0  0  0  0  0  0
    0.0000    0.0000    0.0000 C   0  0  0  0  0  0  0  0  0  0  0  0
    0.0000    0.0000    0.0000 N   0  0  0  0  0  0  0  0  0  0  0  0
    0.0000    0.0000    0.0000 C   0  0  0  0  0  0  0  0  0  0  0  0
    0.0000    0.0000    0.0000 C   0  0  0  0  0  0  0  0  0  0  0  0
    0.0000    0.0000    0.0000 C   0  0  0  0  0  0  0  0  0  0  0  0
    0.0000    0.0000    0.0000 C   0  0  0  0  0  0  0  0  0  0  0  0
    0.0000    0.0000    0.0000 N   0  0  0  0  0  0  0  0  0  0  0  0
    0.0000    0.0000    0.0000 C   0  0  0  0  0  0  0  0  0  0  0  0
    0.0000    0.0000    0.0000 C   0  0  0  0  0  0  0  0  0  0  0  0
    0.0000    0.0000    0.0000 C   0  0  0  0  0  0  0  0  0  0  0  0
    0.0000    0.0000    0.0000 C   0  0  0  0  0  0  0  0  0  0  0  0
    0.0000    0.0000    0.0000 C   0  0  0  0  0  0  0  0  0  0  0  0
    0.0000    0.0000    0.0000 C   0  0  0  0  0  0  0  0  0  0  0  0
    0.0000    0.0000    0.0000 C   0  0  0  0  0  0  0  0  0  0  0  0
    0.0000    0.0000    0.0000 C   0  0  0  0  0  0  0  0  0  0  0  0
    0.0000    0.0000    0.0000 C   0  0  0  0  0  0  0  0  0  0  0  0
    0.0000    0.0000    0.0000 O   0  0  0  0  0  0  0  0  0  0  0  0
    0.0000    0.0000    0.0000 C   0  0  0  0  0  0  0  0  0  0  0  0
  1  2  1  0
  2  3  2  0
  3  4  1  0
  4  5  2  0
  5  6  1  0
  6  7  2  0
  7  8  1  0
  8  9  2  0
  9 10  1  0
 10 11  1  0
 11 12  1  0
 12 13  1  0
 13 14  1  0
 14 15  1  0
 15 16  1  0
 16 17  1  0
 17 18  1  0
 13 19  1  0
  8 20  1  0
 20 21  2  0
 21 22  1  0
 22 23  2  0
 23 24  1  0
 24 25  1  0
 24 26  2  0
  7  2  1  0
 10  6  1  0
 19 11  1  0
 18 15  1  0
 26 20  1  0
M  END
>  <pIC50>  (748) 
5.19

>  <ChEMBL_ID>  (748) 
CHEMBL3787112

>  <document_journal>  (748) 
Bioorg. Med. Chem. Lett.

>  <bao_endpoint>  (748) 
BAO_0000190

>  <potential_duplicate>  (748) 
None

>  <uo_units>  (748) 
UO_0000065

>  <canonical_smiles>  (748) 
Nc1ncnc2c1c(cn2[C@@H]3C[C@H](CN4CCC4)C3)c5cccc(O)c5

>  <parent_molecule_chembl_id>  (748) 
CHEMBL3787112

>  <assay_type>  (748) 
B

>  <src_id>  (748) 
1

>  <ligand_efficiency>  (748) 
None

>  <standard_flag>  (748) 
True

>  <molecule_chembl_id>  (748) 
CHEMBL3787112

>  <target_organism>  (748) 
Homo sapiens

>  <standard_units>  (748) 
nM

>  <record_id>  (748) 
2767463

>  <document_chembl_id>  (748) 
CHEMBL3785066

>  <bao_format>  (748) 
None

>  <data_validity_description>  (748) 
None

>  <activity_id>  (748) 
16540730

>  <standard_type>  (748) 
IC50

>  <target_chembl_id>  (748) 
CHEMBL1862

>  <data_validity_comment>  (748) 
None

>  <published_value>  (748) 
6.4

>  <document_year>  (748) 
2016

>  <target_pref_name>  (748) 
Tyrosine-protein kinase ABL

>  <assay_chembl_id>  (748) 
CHEMBL3789972

>  <standard_relation>  (748) 
=

>  <assay_description>  (748) 
Inhibition of ABL1 (unknown origin) in presence of [gamma33P]ATP

>  <published_relation>  (748) 
=

>  <standard_value>  (748) 
6400

>  <qudt_units>  (748) 
http://www.openphacts.org/units/Nanomolar

>  <target_tax_id>  (748) 
9606

>  <bao_label>  (748) 
None

>  <published_units>  (748) 
uM

>  <pchembl_value>  (748) 
5.19

>  <published_type>  (748) 
IC50

>  <activity_comment>  (748) 
None

$$$$

     RDKit          

 27 30  0  0  0  0  0  0  0  0999 V2000
    0.0000    0.0000    0.0000 C   0  0  0  0  0  0  0  0  0  0  0  0
    0.0000    0.0000    0.0000 C   0  0  0  0  0  0  0  0  0  0  0  0
    0.0000    0.0000    0.0000 O   0  0  0  0  0  0  0  0  0  0  0  0
    0.0000    0.0000    0.0000 C   0  0  0  0  0  0  0  0  0  0  0  0
    0.0000    0.0000    0.0000 C   0  0  0  0  0  0  0  0  0  0  0  0
    0.0000    0.0000    0.0000 N   0  0  0  0  0  0  0  0  0  0  0  0
    0.0000    0.0000    0.0000 N   0  0  0  0  0  0  0  0  0  0  0  0
    0.0000    0.0000    0.0000 C   0  0  0  0  0  0  0  0  0  0  0  0
    0.0000    0.0000    0.0000 C   0  0  0  0  0  0  0  0  0  0  0  0
    0.0000    0.0000    0.0000 C   0  0  0  0  0  0  0  0  0  0  0  0
    0.0000    0.0000    0.0000 N   0  0  0  0  0  0  0  0  0  0  0  0
    0.0000    0.0000    0.0000 C   0  0  0  0  0  0  0  0  0  0  0  0
    0.0000    0.0000    0.0000 N   0  0  0  0  0  0  0  0  0  0  0  0
    0.0000    0.0000    0.0000 C   0  0  0  0  0  0  0  0  0  0  0  0
    0.0000    0.0000    0.0000 C   0  0  0  0  0  0  0  0  0  0  0  0
    0.0000    0.0000    0.0000 C   0  0  0  0  0  0  0  0  0  0  0  0
    0.0000    0.0000    0.0000 C   0  0  0  0  0  0  0  0  0  0  0  0
    0.0000    0.0000    0.0000 C   0  0  0  0  0  0  0  0  0  0  0  0
    0.0000    0.0000    0.0000 C   0  0  0  0  0  0  0  0  0  0  0  0
    0.0000    0.0000    0.0000 N   0  0  0  0  0  0  0  0  0  0  0  0
    0.0000    0.0000    0.0000 N   0  0  0  0  0  0  0  0  0  0  0  0
    0.0000    0.0000    0.0000 C   0  0  0  0  0  0  0  0  0  0  0  0
    0.0000    0.0000    0.0000 N   0  0  0  0  0  0  0  0  0  0  0  0
    0.0000    0.0000    0.0000 C   0  0  0  0  0  0  0  0  0  0  0  0
    0.0000    0.0000    0.0000 O   0  0  0  0  0  0  0  0  0  0  0  0
    0.0000    0.0000    0.0000 C   0  0  0  0  0  0  0  0  0  0  0  0
    0.0000    0.0000    0.0000 C   0  0  0  0  0  0  0  0  0  0  0  0
  1  2  1  0
  2  3  1  0
  3  4  1  0
  4  5  1  0
  5  6  1  0
  6  7  1  0
  7  8  2  0
  8  9  1  0
  9 10  2  0
 10 11  1  0
 11 12  2  0
 12 13  1  0
 13 14  1  0
 14 15  2  0
 15 16  1  0
 16 17  2  0
  8 18  1  0
 18 19  2  0
 19 20  1  0
 19 21  1  0
 21 22  2  0
 22 23  1  0
 23 24  2  0
  4 25  1  0
 25 26  1  0
 26 27  1  0
 24  6  1  0
 17  9  1  0
 16 12  1  0
 24 18  1  0
M  END
>  <pIC50>  (749) 
5.92

>  <ChEMBL_ID>  (749) 
CHEMBL3799221

>  <document_journal>  (749) 
MedChemComm

>  <bao_endpoint>  (749) 
BAO_0000190

>  <potential_duplicate>  (749) 
None

>  <uo_units>  (749) 
UO_0000065

>  <canonical_smiles>  (749) 
CCOC(Cn1nc(c2cnc3[nH]ccc3c2)c4c(N)ncnc14)OCC

>  <parent_molecule_chembl_id>  (749) 
CHEMBL3799221

>  <assay_type>  (749) 
B

>  <src_id>  (749) 
1

>  <ligand_efficiency>  (749) 
None

>  <standard_flag>  (749) 
True

>  <molecule_chembl_id>  (749) 
CHEMBL3799221

>  <target_organism>  (749) 
Homo sapiens

>  <standard_units>  (749) 
nM

>  <record_id>  (749) 
2774445

>  <document_chembl_id>  (749) 
CHEMBL3797068

>  <bao_format>  (749) 
None

>  <data_validity_description>  (749) 
None

>  <activity_id>  (749) 
16566741

>  <standard_type>  (749) 
IC50

>  <target_chembl_id>  (749) 
CHEMBL1862

>  <data_validity_comment>  (749) 
None

>  <published_value>  (749) 
1210

>  <document_year>  (749) 
2016

>  <target_pref_name>  (749) 
Tyrosine-protein kinase ABL

>  <assay_chembl_id>  (749) 
CHEMBL3801327

>  <standard_relation>  (749) 
=

>  <assay_description>  (749) 
Inhibition of human ABL using (poly [Glu, Tyr] 4:1) as substrate assessed as incorporation of 33P in substrate by [gamma33P] ATP-based kinase assay

>  <published_relation>  (749) 
=

>  <standard_value>  (749) 
1210

>  <qudt_units>  (749) 
http://www.openphacts.org/units/Nanomolar

>  <target_tax_id>  (749) 
9606

>  <bao_label>  (749) 
None

>  <published_units>  (749) 
nM

>  <pchembl_value>  (749) 
5.92

>  <published_type>  (749) 
IC50

>  <activity_comment>  (749) 
None

$$$$

     RDKit          

 26 30  0  0  0  0  0  0  0  0999 V2000
    0.0000    0.0000    0.0000 N   0  0  0  0  0  0  0  0  0  0  0  0
    0.0000    0.0000    0.0000 C   0  0  0  0  0  0  0  0  0  0  0  0
    0.0000    0.0000    0.0000 O   0  0  0  0  0  0  0  0  0  0  0  0
    0.0000    0.0000    0.0000 C   0  0  0  0  0  0  0  0  0  0  0  0
    0.0000    0.0000    0.0000 C   0  0  0  0  0  0  0  0  0  0  0  0
    0.0000    0.0000    0.0000 C   0  0  0  0  0  0  0  0  0  0  0  0
    0.0000    0.0000    0.0000 C   0  0  0  0  0  0  0  0  0  0  0  0
    0.0000    0.0000    0.0000 C   0  0  0  0  0  0  0  0  0  0  0  0
    0.0000    0.0000    0.0000 C   0  0  0  0  0  0  0  0  0  0  0  0
    0.0000    0.0000    0.0000 N   0  0  0  0  0  0  0  0  0  0  0  0
    0.0000    0.0000    0.0000 C   0  0  0  0  0  0  0  0  0  0  0  0
    0.0000    0.0000    0.0000 N   0  0  0  0  0  0  0  0  0  0  0  0
    0.0000    0.0000    0.0000 N   0  0  0  0  0  0  0  0  0  0  0  0
    0.0000    0.0000    0.0000 C   0  0  0  0  0  0  0  0  0  0  0  0
    0.0000    0.0000    0.0000 C   0  0  0  0  0  0  0  0  0  0  0  0
    0.0000    0.0000    0.0000 O   0  0  0  0  0  0  0  0  0  0  0  0
    0.0000    0.0000    0.0000 C   0  0  0  0  0  0  0  0  0  0  0  0
    0.0000    0.0000    0.0000 C   0  0  0  0  0  0  0  0  0  0  0  0
    0.0000    0.0000    0.0000 O   0  0  0  0  0  0  0  0  0  0  0  0
    0.0000    0.0000    0.0000 C   0  0  0  0  0  0  0  0  0  0  0  0
    0.0000    0.0000    0.0000 N   0  0  0  0  0  0  0  0  0  0  0  0
    0.0000    0.0000    0.0000 C   0  0  0  0  0  0  0  0  0  0  0  0
    0.0000    0.0000    0.0000 N   0  0  0  0  0  0  0  0  0  0  0  0
    0.0000    0.0000    0.0000 C   0  0  0  0  0  0  0  0  0  0  0  0
    0.0000    0.0000    0.0000 N   0  0  0  0  0  0  0  0  0  0  0  0
    0.0000    0.0000    0.0000 C   0  0  0  0  0  0  0  0  0  0  0  0
  1  2  1  0
  2  3  1  0
  3  4  1  0
  4  5  2  0
  5  6  1  0
  6  7  2  0
  7  8  1  0
  8  9  2  0
  9 10  1  0
  7 11  1  0
 11 12  2  0
 12 13  1  0
 13 14  1  0
 14 15  1  0
 15 16  1  0
 16 17  1  0
 17 18  1  0
 18 19  1  0
 13 20  1  0
 20 21  2  0
 21 22  1  0
 22 23  2  0
 23 24  1  0
 24 25  1  0
 24 26  2  0
 10  2  2  0
  9  4  1  0
 26 11  1  0
 19 15  1  0
 26 20  1  0
M  END
>  <pIC50>  (750) 
5.06

>  <ChEMBL_ID>  (750) 
CHEMBL3797590

>  <document_journal>  (750) 
MedChemComm

>  <bao_endpoint>  (750) 
BAO_0000190

>  <potential_duplicate>  (750) 
None

>  <uo_units>  (750) 
UO_0000065

>  <canonical_smiles>  (750) 
Nc1oc2ccc(cc2n1)c3nn(CC4OCCO4)c5ncnc(N)c35

>  <parent_molecule_chembl_id>  (750) 
CHEMBL3797590

>  <assay_type>  (750) 
B

>  <src_id>  (750) 
1

>  <ligand_efficiency>  (750) 
None

>  <standard_flag>  (750) 
True

>  <molecule_chembl_id>  (750) 
CHEMBL3797590

>  <target_organism>  (750) 
Homo sapiens

>  <standard_units>  (750) 
nM

>  <record_id>  (750) 
2774447

>  <document_chembl_id>  (750) 
CHEMBL3797068

>  <bao_format>  (750) 
None

>  <data_validity_description>  (750) 
None

>  <activity_id>  (750) 
16566808

>  <standard_type>  (750) 
IC50

>  <target_chembl_id>  (750) 
CHEMBL1862

>  <data_validity_comment>  (750) 
None

>  <published_value>  (750) 
8630

>  <document_year>  (750) 
2016

>  <target_pref_name>  (750) 
Tyrosine-protein kinase ABL

>  <assay_chembl_id>  (750) 
CHEMBL3801327

>  <standard_relation>  (750) 
=

>  <assay_description>  (750) 
Inhibition of human ABL using (poly [Glu, Tyr] 4:1) as substrate assessed as incorporation of 33P in substrate by [gamma33P] ATP-based kinase assay

>  <published_relation>  (750) 
=

>  <standard_value>  (750) 
8630

>  <qudt_units>  (750) 
http://www.openphacts.org/units/Nanomolar

>  <target_tax_id>  (750) 
9606

>  <bao_label>  (750) 
None

>  <published_units>  (750) 
nM

>  <pchembl_value>  (750) 
5.06

>  <published_type>  (750) 
IC50

>  <activity_comment>  (750) 
None

$$$$

     RDKit          

 26 29  0  0  0  0  0  0  0  0999 V2000
    0.0000    0.0000    0.0000 C   0  0  0  0  0  0  0  0  0  0  0  0
    0.0000    0.0000    0.0000 O   0  0  0  0  0  0  0  0  0  0  0  0
    0.0000    0.0000    0.0000 C   0  0  0  0  0  0  0  0  0  0  0  0
    0.0000    0.0000    0.0000 C   0  0  0  0  0  0  0  0  0  0  0  0
    0.0000    0.0000    0.0000 N   0  0  0  0  0  0  0  0  0  0  0  0
    0.0000    0.0000    0.0000 N   0  0  0  0  0  0  0  0  0  0  0  0
    0.0000    0.0000    0.0000 C   0  0  0  0  0  0  0  0  0  0  0  0
    0.0000    0.0000    0.0000 C   0  0  0  0  0  0  0  0  0  0  0  0
    0.0000    0.0000    0.0000 C   0  0  0  0  0  0  0  0  0  0  0  0
    0.0000    0.0000    0.0000 C   0  0  0  0  0  0  0  0  0  0  0  0
    0.0000    0.0000    0.0000 C   0  0  0  0  0  0  0  0  0  0  0  0
    0.0000    0.0000    0.0000 O   0  0  0  0  0  0  0  0  0  0  0  0
    0.0000    0.0000    0.0000 C   0  0  0  0  0  0  0  0  0  0  0  0
    0.0000    0.0000    0.0000 N   0  0  0  0  0  0  0  0  0  0  0  0
    0.0000    0.0000    0.0000 N   0  0  0  0  0  0  0  0  0  0  0  0
    0.0000    0.0000    0.0000 C   0  0  0  0  0  0  0  0  0  0  0  0
    0.0000    0.0000    0.0000 C   0  0  0  0  0  0  0  0  0  0  0  0
    0.0000    0.0000    0.0000 C   0  0  0  0  0  0  0  0  0  0  0  0
    0.0000    0.0000    0.0000 C   0  0  0  0  0  0  0  0  0  0  0  0
    0.0000    0.0000    0.0000 N   0  0  0  0  0  0  0  0  0  0  0  0
    0.0000    0.0000    0.0000 N   0  0  0  0  0  0  0  0  0  0  0  0
    0.0000    0.0000    0.0000 C   0  0  0  0  0  0  0  0  0  0  0  0
    0.0000    0.0000    0.0000 N   0  0  0  0  0  0  0  0  0  0  0  0
    0.0000    0.0000    0.0000 C   0  0  0  0  0  0  0  0  0  0  0  0
    0.0000    0.0000    0.0000 O   0  0  0  0  0  0  0  0  0  0  0  0
    0.0000    0.0000    0.0000 C   0  0  0  0  0  0  0  0  0  0  0  0
  1  2  1  0
  2  3  1  0
  3  4  1  0
  4  5  1  0
  5  6  1  0
  6  7  2  0
  7  8  1  0
  8  9  2  0
  9 10  1  0
 10 11  2  0
 11 12  1  0
 12 13  1  0
 13 14  1  0
 13 15  2  0
 15 16  1  0
 16 17  2  0
  7 18  1  0
 18 19  2  0
 19 20  1  0
 19 21  1  0
 21 22  2  0
 22 23  1  0
 23 24  2  0
  3 25  1  0
 25 26  1  0
 24  5  1  0
 17  8  1  0
 16 11  1  0
 24 18  1  0
M  END
>  <pIC50>  (751) 
5.0

>  <ChEMBL_ID>  (751) 
CHEMBL3800138

>  <document_journal>  (751) 
MedChemComm

>  <bao_endpoint>  (751) 
BAO_0000190

>  <potential_duplicate>  (751) 
None

>  <uo_units>  (751) 
UO_0000065

>  <canonical_smiles>  (751) 
COC(Cn1nc(c2ccc3oc(N)nc3c2)c4c(N)ncnc14)OC

>  <parent_molecule_chembl_id>  (751) 
CHEMBL3800138

>  <assay_type>  (751) 
B

>  <src_id>  (751) 
1

>  <ligand_efficiency>  (751) 
None

>  <standard_flag>  (751) 
True

>  <molecule_chembl_id>  (751) 
CHEMBL3800138

>  <target_organism>  (751) 
Homo sapiens

>  <standard_units>  (751) 
nM

>  <record_id>  (751) 
2774981

>  <document_chembl_id>  (751) 
CHEMBL3797068

>  <bao_format>  (751) 
None

>  <data_validity_description>  (751) 
None

>  <activity_id>  (751) 
16566822

>  <standard_type>  (751) 
IC50

>  <target_chembl_id>  (751) 
CHEMBL1862

>  <data_validity_comment>  (751) 
None

>  <published_value>  (751) 
9920

>  <document_year>  (751) 
2016

>  <target_pref_name>  (751) 
Tyrosine-protein kinase ABL

>  <assay_chembl_id>  (751) 
CHEMBL3801327

>  <standard_relation>  (751) 
=

>  <assay_description>  (751) 
Inhibition of human ABL using (poly [Glu, Tyr] 4:1) as substrate assessed as incorporation of 33P in substrate by [gamma33P] ATP-based kinase assay

>  <published_relation>  (751) 
=

>  <standard_value>  (751) 
9920

>  <qudt_units>  (751) 
http://www.openphacts.org/units/Nanomolar

>  <target_tax_id>  (751) 
9606

>  <bao_label>  (751) 
None

>  <published_units>  (751) 
nM

>  <pchembl_value>  (751) 
5

>  <published_type>  (751) 
IC50

>  <activity_comment>  (751) 
None

$$$$

     RDKit          

 40 43  0  0  0  0  0  0  0  0999 V2000
    0.0000    0.0000    0.0000 C   0  0  0  0  0  0  0  0  0  0  0  0
    0.0000    0.0000    0.0000 C   0  0  0  0  0  0  0  0  0  0  0  0
    0.0000    0.0000    0.0000 N   0  0  0  0  0  0  0  0  0  0  0  0
    0.0000    0.0000    0.0000 C   0  0  0  0  0  0  0  0  0  0  0  0
    0.0000    0.0000    0.0000 C   0  0  0  0  0  0  0  0  0  0  0  0
    0.0000    0.0000    0.0000 N   0  0  0  0  0  0  0  0  0  0  0  0
    0.0000    0.0000    0.0000 C   0  0  0  0  0  0  0  0  0  0  0  0
    0.0000    0.0000    0.0000 C   0  0  0  0  0  0  0  0  0  0  0  0
    0.0000    0.0000    0.0000 C   0  0  0  0  0  0  0  0  0  0  0  0
    0.0000    0.0000    0.0000 C   0  0  0  0  0  0  0  0  0  0  0  0
    0.0000    0.0000    0.0000 C   0  0  0  0  0  0  0  0  0  0  0  0
    0.0000    0.0000    0.0000 N   0  0  0  0  0  0  0  0  0  0  0  0
    0.0000    0.0000    0.0000 C   0  0  0  0  0  0  0  0  0  0  0  0
    0.0000    0.0000    0.0000 O   0  0  0  0  0  0  0  0  0  0  0  0
    0.0000    0.0000    0.0000 C   0  0  0  0  0  0  0  0  0  0  0  0
    0.0000    0.0000    0.0000 N   0  0  0  0  0  0  0  0  0  0  0  0
    0.0000    0.0000    0.0000 C   0  0  0  0  0  0  0  0  0  0  0  0
    0.0000    0.0000    0.0000 C   0  0  0  0  0  0  0  0  0  0  0  0
    0.0000    0.0000    0.0000 C   0  0  0  0  0  0  0  0  0  0  0  0
    0.0000    0.0000    0.0000 C   0  0  0  0  0  0  0  0  0  0  0  0
    0.0000    0.0000    0.0000 C   0  0  0  0  0  0  0  0  0  0  0  0
    0.0000    0.0000    0.0000 C   0  0  0  0  0  0  0  0  0  0  0  0
    0.0000    0.0000    0.0000 C   0  0  0  0  0  0  0  0  0  0  0  0
    0.0000    0.0000    0.0000 C   0  0  0  0  0  0  0  0  0  0  0  0
    0.0000    0.0000    0.0000 C   0  0  0  0  0  0  0  0  0  0  0  0
    0.0000    0.0000    0.0000 C   0  0  0  0  0  0  0  0  0  0  0  0
    0.0000    0.0000    0.0000 N   0  0  0  0  0  0  0  0  0  0  0  0
    0.0000    0.0000    0.0000 C   0  0  0  0  0  0  0  0  0  0  0  0
    0.0000    0.0000    0.0000 O   0  0  0  0  0  0  0  0  0  0  0  0
    0.0000    0.0000    0.0000 C   0  0  0  0  0  0  0  0  0  0  0  0
    0.0000    0.0000    0.0000 N   0  0  0  0  0  0  0  0  0  0  0  0
    0.0000    0.0000    0.0000 C   0  0  0  0  0  0  0  0  0  0  0  0
    0.0000    0.0000    0.0000 C   0  0  0  0  0  0  0  0  0  0  0  0
    0.0000    0.0000    0.0000 C   0  0  0  0  0  0  0  0  0  0  0  0
    0.0000    0.0000    0.0000 C   0  0  0  0  0  0  0  0  0  0  0  0
    0.0000    0.0000    0.0000 F   0  0  0  0  0  0  0  0  0  0  0  0
    0.0000    0.0000    0.0000 F   0  0  0  0  0  0  0  0  0  0  0  0
    0.0000    0.0000    0.0000 F   0  0  0  0  0  0  0  0  0  0  0  0
    0.0000    0.0000    0.0000 C   0  0  0  0  0  0  0  0  0  0  0  0
    0.0000    0.0000    0.0000 C   0  0  0  0  0  0  0  0  0  0  0  0
  1  2  1  0
  2  3  1  0
  3  4  1  0
  4  5  1  0
  5  6  1  0
  6  7  1  0
  7  8  1  0
  8  9  2  0
  9 10  1  0
 10 11  2  0
 11 12  1  0
 12 13  1  0
 13 14  2  0
 13 15  1  0
 15 16  1  0
 16 17  1  0
 17 18  2  0
 18 19  1  0
 19 20  2  0
 20 21  1  0
 21 22  2  0
 20 23  1  0
 23 24  2  0
 24 25  1  0
 25 26  2  0
 26 27  1  0
 27 28  1  0
 28 29  2  0
 28 30  1  0
 26 31  1  0
 31 32  2  0
 11 33  1  0
 33 34  2  0
 34 35  1  0
 35 36  1  0
 35 37  1  0
 35 38  1  0
  6 39  1  0
 39 40  1  0
 40  3  1  0
 34  8  1  0
 22 17  1  0
 32 23  1  0
M  END
>  <pIC50>  (752) 
7.05

>  <ChEMBL_ID>  (752) 
CHEMBL3805891

>  <document_journal>  (752) 
J. Med. Chem.

>  <bao_endpoint>  (752) 
BAO_0000190

>  <potential_duplicate>  (752) 
None

>  <uo_units>  (752) 
UO_0000065

>  <canonical_smiles>  (752) 
CCN1CCN(Cc2ccc(NC(=O)CNc3ccc(cc3)c4ccc(NC(=O)C)nc4)cc2C(F)(F)F)CC1

>  <parent_molecule_chembl_id>  (752) 
CHEMBL3805891

>  <assay_type>  (752) 
B

>  <src_id>  (752) 
1

>  <ligand_efficiency>  (752) 
None

>  <standard_flag>  (752) 
True

>  <molecule_chembl_id>  (752) 
CHEMBL3805891

>  <target_organism>  (752) 
Homo sapiens

>  <standard_units>  (752) 
nM

>  <record_id>  (752) 
2777918

>  <document_chembl_id>  (752) 
CHEMBL3804768

>  <bao_format>  (752) 
None

>  <data_validity_description>  (752) 
None

>  <activity_id>  (752) 
16588141

>  <standard_type>  (752) 
IC50

>  <target_chembl_id>  (752) 
CHEMBL1862

>  <data_validity_comment>  (752) 
None

>  <published_value>  (752) 
0.09

>  <document_year>  (752) 
2016

>  <target_pref_name>  (752) 
Tyrosine-protein kinase ABL

>  <assay_chembl_id>  (752) 
CHEMBL3806740

>  <standard_relation>  (752) 
=

>  <assay_description>  (752) 
Inhibition of full length human recombinant N-terminal His-tagged ABL (2 to 1130 residues) T315I mutant expressed in baculovirus expression system using FL-peptide 2 substrate preincubated for 10 mins followed by substrate addition measured after 60 mins by mobility shift assay

>  <published_relation>  (752) 
=

>  <standard_value>  (752) 
90

>  <qudt_units>  (752) 
http://www.openphacts.org/units/Nanomolar

>  <target_tax_id>  (752) 
9606

>  <bao_label>  (752) 
None

>  <published_units>  (752) 
uM

>  <pchembl_value>  (752) 
7.05

>  <published_type>  (752) 
IC50

>  <activity_comment>  (752) 
None

$$$$

     RDKit          

 40 43  0  0  0  0  0  0  0  0999 V2000
    0.0000    0.0000    0.0000 C   0  0  0  0  0  0  0  0  0  0  0  0
    0.0000    0.0000    0.0000 C   0  0  0  0  0  0  0  0  0  0  0  0
    0.0000    0.0000    0.0000 N   0  0  0  0  0  0  0  0  0  0  0  0
    0.0000    0.0000    0.0000 C   0  0  0  0  0  0  0  0  0  0  0  0
    0.0000    0.0000    0.0000 C   0  0  0  0  0  0  0  0  0  0  0  0
    0.0000    0.0000    0.0000 N   0  0  0  0  0  0  0  0  0  0  0  0
    0.0000    0.0000    0.0000 C   0  0  0  0  0  0  0  0  0  0  0  0
    0.0000    0.0000    0.0000 C   0  0  0  0  0  0  0  0  0  0  0  0
    0.0000    0.0000    0.0000 C   0  0  0  0  0  0  0  0  0  0  0  0
    0.0000    0.0000    0.0000 C   0  0  0  0  0  0  0  0  0  0  0  0
    0.0000    0.0000    0.0000 C   0  0  0  0  0  0  0  0  0  0  0  0
    0.0000    0.0000    0.0000 N   0  0  0  0  0  0  0  0  0  0  0  0
    0.0000    0.0000    0.0000 C   0  0  0  0  0  0  0  0  0  0  0  0
    0.0000    0.0000    0.0000 O   0  0  0  0  0  0  0  0  0  0  0  0
    0.0000    0.0000    0.0000 C   0  0  0  0  0  0  0  0  0  0  0  0
    0.0000    0.0000    0.0000 O   0  0  0  0  0  0  0  0  0  0  0  0
    0.0000    0.0000    0.0000 C   0  0  0  0  0  0  0  0  0  0  0  0
    0.0000    0.0000    0.0000 C   0  0  0  0  0  0  0  0  0  0  0  0
    0.0000    0.0000    0.0000 C   0  0  0  0  0  0  0  0  0  0  0  0
    0.0000    0.0000    0.0000 C   0  0  0  0  0  0  0  0  0  0  0  0
    0.0000    0.0000    0.0000 C   0  0  0  0  0  0  0  0  0  0  0  0
    0.0000    0.0000    0.0000 C   0  0  0  0  0  0  0  0  0  0  0  0
    0.0000    0.0000    0.0000 C   0  0  0  0  0  0  0  0  0  0  0  0
    0.0000    0.0000    0.0000 C   0  0  0  0  0  0  0  0  0  0  0  0
    0.0000    0.0000    0.0000 C   0  0  0  0  0  0  0  0  0  0  0  0
    0.0000    0.0000    0.0000 C   0  0  0  0  0  0  0  0  0  0  0  0
    0.0000    0.0000    0.0000 N   0  0  0  0  0  0  0  0  0  0  0  0
    0.0000    0.0000    0.0000 C   0  0  0  0  0  0  0  0  0  0  0  0
    0.0000    0.0000    0.0000 O   0  0  0  0  0  0  0  0  0  0  0  0
    0.0000    0.0000    0.0000 C   0  0  0  0  0  0  0  0  0  0  0  0
    0.0000    0.0000    0.0000 N   0  0  0  0  0  0  0  0  0  0  0  0
    0.0000    0.0000    0.0000 C   0  0  0  0  0  0  0  0  0  0  0  0
    0.0000    0.0000    0.0000 C   0  0  0  0  0  0  0  0  0  0  0  0
    0.0000    0.0000    0.0000 C   0  0  0  0  0  0  0  0  0  0  0  0
    0.0000    0.0000    0.0000 C   0  0  0  0  0  0  0  0  0  0  0  0
    0.0000    0.0000    0.0000 F   0  0  0  0  0  0  0  0  0  0  0  0
    0.0000    0.0000    0.0000 F   0  0  0  0  0  0  0  0  0  0  0  0
    0.0000    0.0000    0.0000 F   0  0  0  0  0  0  0  0  0  0  0  0
    0.0000    0.0000    0.0000 C   0  0  0  0  0  0  0  0  0  0  0  0
    0.0000    0.0000    0.0000 C   0  0  0  0  0  0  0  0  0  0  0  0
  1  2  1  0
  2  3  1  0
  3  4  1  0
  4  5  1  0
  5  6  1  0
  6  7  1  0
  7  8  1  0
  8  9  2  0
  9 10  1  0
 10 11  2  0
 11 12  1  0
 12 13  1  0
 13 14  2  0
 13 15  1  0
 15 16  1  0
 16 17  1  0
 17 18  2  0
 18 19  1  0
 19 20  2  0
 20 21  1  0
 21 22  2  0
 20 23  1  0
 23 24  2  0
 24 25  1  0
 25 26  2  0
 26 27  1  0
 27 28  1  0
 28 29  2  0
 28 30  1  0
 26 31  1  0
 31 32  2  0
 11 33  1  0
 33 34  2  0
 34 35  1  0
 35 36  1  0
 35 37  1  0
 35 38  1  0
  6 39  1  0
 39 40  1  0
 40  3  1  0
 34  8  1  0
 22 17  1  0
 32 23  1  0
M  END
>  <pIC50>  (753) 
6.77

>  <ChEMBL_ID>  (753) 
CHEMBL3805865

>  <document_journal>  (753) 
J. Med. Chem.

>  <bao_endpoint>  (753) 
BAO_0000190

>  <potential_duplicate>  (753) 
None

>  <uo_units>  (753) 
UO_0000065

>  <canonical_smiles>  (753) 
CCN1CCN(Cc2ccc(NC(=O)COc3ccc(cc3)c4ccc(NC(=O)C)nc4)cc2C(F)(F)F)CC1

>  <parent_molecule_chembl_id>  (753) 
CHEMBL3805865

>  <assay_type>  (753) 
B

>  <src_id>  (753) 
1

>  <ligand_efficiency>  (753) 
None

>  <standard_flag>  (753) 
True

>  <molecule_chembl_id>  (753) 
CHEMBL3805865

>  <target_organism>  (753) 
Homo sapiens

>  <standard_units>  (753) 
nM

>  <record_id>  (753) 
2777917

>  <document_chembl_id>  (753) 
CHEMBL3804768

>  <bao_format>  (753) 
None

>  <data_validity_description>  (753) 
None

>  <activity_id>  (753) 
16588142

>  <standard_type>  (753) 
IC50

>  <target_chembl_id>  (753) 
CHEMBL1862

>  <data_validity_comment>  (753) 
None

>  <published_value>  (753) 
0.17

>  <document_year>  (753) 
2016

>  <target_pref_name>  (753) 
Tyrosine-protein kinase ABL

>  <assay_chembl_id>  (753) 
CHEMBL3806740

>  <standard_relation>  (753) 
=

>  <assay_description>  (753) 
Inhibition of full length human recombinant N-terminal His-tagged ABL (2 to 1130 residues) T315I mutant expressed in baculovirus expression system using FL-peptide 2 substrate preincubated for 10 mins followed by substrate addition measured after 60 mins by mobility shift assay

>  <published_relation>  (753) 
=

>  <standard_value>  (753) 
170

>  <qudt_units>  (753) 
http://www.openphacts.org/units/Nanomolar

>  <target_tax_id>  (753) 
9606

>  <bao_label>  (753) 
None

>  <published_units>  (753) 
uM

>  <pchembl_value>  (753) 
6.77

>  <published_type>  (753) 
IC50

>  <activity_comment>  (753) 
None

$$$$

     RDKit          

 38 41  0  0  0  0  0  0  0  0999 V2000
    0.0000    0.0000    0.0000 C   0  0  0  0  0  0  0  0  0  0  0  0
    0.0000    0.0000    0.0000 C   0  0  0  0  0  0  0  0  0  0  0  0
    0.0000    0.0000    0.0000 O   0  0  0  0  0  0  0  0  0  0  0  0
    0.0000    0.0000    0.0000 N   0  0  0  0  0  0  0  0  0  0  0  0
    0.0000    0.0000    0.0000 C   0  0  0  0  0  0  0  0  0  0  0  0
    0.0000    0.0000    0.0000 C   0  0  0  0  0  0  0  0  0  0  0  0
    0.0000    0.0000    0.0000 C   0  0  0  0  0  0  0  0  0  0  0  0
    0.0000    0.0000    0.0000 C   0  0  0  0  0  0  0  0  0  0  0  0
    0.0000    0.0000    0.0000 C   0  0  0  0  0  0  0  0  0  0  0  0
    0.0000    0.0000    0.0000 N   0  0  0  0  0  0  0  0  0  0  0  0
    0.0000    0.0000    0.0000 C   0  0  0  0  0  0  0  0  0  0  0  0
    0.0000    0.0000    0.0000 C   0  0  0  0  0  0  0  0  0  0  0  0
    0.0000    0.0000    0.0000 C   0  0  0  0  0  0  0  0  0  0  0  0
    0.0000    0.0000    0.0000 C   0  0  0  0  0  0  0  0  0  0  0  0
    0.0000    0.0000    0.0000 N   0  0  0  0  0  0  0  0  0  0  0  0
    0.0000    0.0000    0.0000 C   0  0  0  0  0  0  0  0  0  0  0  0
    0.0000    0.0000    0.0000 C   0  0  0  0  0  0  0  0  0  0  0  0
    0.0000    0.0000    0.0000 O   0  0  0  0  0  0  0  0  0  0  0  0
    0.0000    0.0000    0.0000 N   0  0  0  0  0  0  0  0  0  0  0  0
    0.0000    0.0000    0.0000 C   0  0  0  0  0  0  0  0  0  0  0  0
    0.0000    0.0000    0.0000 C   0  0  0  0  0  0  0  0  0  0  0  0
    0.0000    0.0000    0.0000 C   0  0  0  0  0  0  0  0  0  0  0  0
    0.0000    0.0000    0.0000 C   0  0  0  0  0  0  0  0  0  0  0  0
    0.0000    0.0000    0.0000 C   0  0  0  0  0  0  0  0  0  0  0  0
    0.0000    0.0000    0.0000 N   0  0  0  0  0  0  0  0  0  0  0  0
    0.0000    0.0000    0.0000 C   0  0  0  0  0  0  0  0  0  0  0  0
    0.0000    0.0000    0.0000 C   0  0  0  0  0  0  0  0  0  0  0  0
    0.0000    0.0000    0.0000 N   0  0  0  0  0  0  0  0  0  0  0  0
    0.0000    0.0000    0.0000 C   0  0  0  0  0  0  0  0  0  0  0  0
    0.0000    0.0000    0.0000 C   0  0  0  0  0  0  0  0  0  0  0  0
    0.0000    0.0000    0.0000 C   0  0  0  0  0  0  0  0  0  0  0  0
    0.0000    0.0000    0.0000 C   0  0  0  0  0  0  0  0  0  0  0  0
    0.0000    0.0000    0.0000 C   0  0  0  0  0  0  0  0  0  0  0  0
    0.0000    0.0000    0.0000 F   0  0  0  0  0  0  0  0  0  0  0  0
    0.0000    0.0000    0.0000 F   0  0  0  0  0  0  0  0  0  0  0  0
    0.0000    0.0000    0.0000 F   0  0  0  0  0  0  0  0  0  0  0  0
    0.0000    0.0000    0.0000 C   0  0  0  0  0  0  0  0  0  0  0  0
    0.0000    0.0000    0.0000 C   0  0  0  0  0  0  0  0  0  0  0  0
  1  2  1  0
  2  3  2  0
  2  4  1  0
  4  5  1  0
  5  6  2  0
  6  7  1  0
  7  8  2  0
  8  9  1  0
  9 10  2  0
  8 11  1  0
 11 12  2  0
 12 13  1  0
 13 14  2  0
 14 15  1  0
 15 16  1  0
 16 17  1  0
 17 18  2  0
 17 19  1  0
 19 20  1  0
 20 21  2  0
 21 22  1  0
 22 23  2  0
 23 24  1  0
 24 25  1  0
 25 26  1  0
 26 27  1  0
 27 28  1  0
 28 29  1  0
 29 30  1  0
 23 31  1  0
 31 32  2  0
 31 33  1  0
 33 34  1  0
 33 35  1  0
 33 36  1  0
 14 37  1  0
 37 38  2  0
 10  5  1  0
 38 11  1  0
 32 20  1  0
 30 25  1  0
M  END
>  <pIC50>  (754) 
6.62

>  <ChEMBL_ID>  (754) 
CHEMBL3804921

>  <document_journal>  (754) 
J. Med. Chem.

>  <bao_endpoint>  (754) 
BAO_0000190

>  <potential_duplicate>  (754) 
None

>  <uo_units>  (754) 
UO_0000065

>  <canonical_smiles>  (754) 
CC(=O)Nc1ccc(cn1)c2ccc(NCC(=O)Nc3ccc(CN4CCNCC4)c(c3)C(F)(F)F)cc2

>  <parent_molecule_chembl_id>  (754) 
CHEMBL3804921

>  <assay_type>  (754) 
B

>  <src_id>  (754) 
1

>  <ligand_efficiency>  (754) 
None

>  <standard_flag>  (754) 
True

>  <molecule_chembl_id>  (754) 
CHEMBL3804921

>  <target_organism>  (754) 
Homo sapiens

>  <standard_units>  (754) 
nM

>  <record_id>  (754) 
2777919

>  <document_chembl_id>  (754) 
CHEMBL3804768

>  <bao_format>  (754) 
None

>  <data_validity_description>  (754) 
None

>  <activity_id>  (754) 
16588169

>  <standard_type>  (754) 
IC50

>  <target_chembl_id>  (754) 
CHEMBL1862

>  <data_validity_comment>  (754) 
None

>  <published_value>  (754) 
0.24

>  <document_year>  (754) 
2016

>  <target_pref_name>  (754) 
Tyrosine-protein kinase ABL

>  <assay_chembl_id>  (754) 
CHEMBL3806740

>  <standard_relation>  (754) 
=

>  <assay_description>  (754) 
Inhibition of full length human recombinant N-terminal His-tagged ABL (2 to 1130 residues) T315I mutant expressed in baculovirus expression system using FL-peptide 2 substrate preincubated for 10 mins followed by substrate addition measured after 60 mins by mobility shift assay

>  <published_relation>  (754) 
=

>  <standard_value>  (754) 
240

>  <qudt_units>  (754) 
http://www.openphacts.org/units/Nanomolar

>  <target_tax_id>  (754) 
9606

>  <bao_label>  (754) 
None

>  <published_units>  (754) 
uM

>  <pchembl_value>  (754) 
6.62

>  <published_type>  (754) 
IC50

>  <activity_comment>  (754) 
None

$$$$

     RDKit          

 40 44  0  0  0  0  0  0  0  0999 V2000
    0.0000    0.0000    0.0000 F   0  0  0  0  0  0  0  0  0  0  0  0
    0.0000    0.0000    0.0000 C   0  0  0  0  0  0  0  0  0  0  0  0
    0.0000    0.0000    0.0000 F   0  0  0  0  0  0  0  0  0  0  0  0
    0.0000    0.0000    0.0000 F   0  0  0  0  0  0  0  0  0  0  0  0
    0.0000    0.0000    0.0000 C   0  0  0  0  0  0  0  0  0  0  0  0
    0.0000    0.0000    0.0000 C   0  0  0  0  0  0  0  0  0  0  0  0
    0.0000    0.0000    0.0000 C   0  0  0  0  0  0  0  0  0  0  0  0
    0.0000    0.0000    0.0000 N   0  0  0  0  0  0  0  0  0  0  0  0
    0.0000    0.0000    0.0000 C   0  0  0  0  0  0  0  0  0  0  0  0
    0.0000    0.0000    0.0000 O   0  0  0  0  0  0  0  0  0  0  0  0
    0.0000    0.0000    0.0000 C   0  0  0  0  0  0  0  0  0  0  0  0
    0.0000    0.0000    0.0000 N   0  0  0  0  0  0  0  0  0  0  0  0
    0.0000    0.0000    0.0000 C   0  0  0  0  0  0  0  0  0  0  0  0
    0.0000    0.0000    0.0000 C   0  0  0  0  0  0  0  0  0  0  0  0
    0.0000    0.0000    0.0000 C   0  0  0  0  0  0  0  0  0  0  0  0
    0.0000    0.0000    0.0000 C   0  0  0  0  0  0  0  0  0  0  0  0
    0.0000    0.0000    0.0000 C   0  0  0  0  0  0  0  0  0  0  0  0
    0.0000    0.0000    0.0000 C   0  0  0  0  0  0  0  0  0  0  0  0
    0.0000    0.0000    0.0000 C   0  0  0  0  0  0  0  0  0  0  0  0
    0.0000    0.0000    0.0000 C   0  0  0  0  0  0  0  0  0  0  0  0
    0.0000    0.0000    0.0000 C   0  0  0  0  0  0  0  0  0  0  0  0
    0.0000    0.0000    0.0000 C   0  0  0  0  0  0  0  0  0  0  0  0
    0.0000    0.0000    0.0000 N   0  0  0  0  0  0  0  0  0  0  0  0
    0.0000    0.0000    0.0000 C   0  0  0  0  0  0  0  0  0  0  0  0
    0.0000    0.0000    0.0000 O   0  0  0  0  0  0  0  0  0  0  0  0
    0.0000    0.0000    0.0000 C   0  0  0  0  0  0  0  0  0  0  0  0
    0.0000    0.0000    0.0000 C   0  0  0  0  0  0  0  0  0  0  0  0
    0.0000    0.0000    0.0000 C   0  0  0  0  0  0  0  0  0  0  0  0
    0.0000    0.0000    0.0000 N   0  0  0  0  0  0  0  0  0  0  0  0
    0.0000    0.0000    0.0000 C   0  0  0  0  0  0  0  0  0  0  0  0
    0.0000    0.0000    0.0000 C   0  0  0  0  0  0  0  0  0  0  0  0
    0.0000    0.0000    0.0000 C   0  0  0  0  0  0  0  0  0  0  0  0
    0.0000    0.0000    0.0000 C   0  0  0  0  0  0  0  0  0  0  0  0
    0.0000    0.0000    0.0000 C   0  0  0  0  0  0  0  0  0  0  0  0
    0.0000    0.0000    0.0000 N   0  0  0  0  0  0  0  0  0  0  0  0
    0.0000    0.0000    0.0000 C   0  0  0  0  0  0  0  0  0  0  0  0
    0.0000    0.0000    0.0000 C   0  0  0  0  0  0  0  0  0  0  0  0
    0.0000    0.0000    0.0000 N   0  0  0  0  0  0  0  0  0  0  0  0
    0.0000    0.0000    0.0000 C   0  0  0  0  0  0  0  0  0  0  0  0
    0.0000    0.0000    0.0000 C   0  0  0  0  0  0  0  0  0  0  0  0
  1  2  1  0
  2  3  1  0
  2  4  1  0
  2  5  1  0
  5  6  2  0
  6  7  1  0
  7  8  1  0
  8  9  1  0
  9 10  2  0
  9 11  1  0
 11 12  1  0
 12 13  1  0
 13 14  2  0
 14 15  1  0
 15 16  2  0
 16 17  1  0
 17 18  2  0
 16 19  1  0
 19 20  2  0
 20 21  1  0
 21 22  2  0
 22 23  1  0
 23 24  1  0
 24 25  2  0
 24 26  1  0
 26 27  1  0
 27 28  1  0
 22 29  1  0
 29 30  2  0
  7 31  2  0
 31 32  1  0
 32 33  2  0
 33 34  1  0
 34 35  1  0
 35 36  1  0
 36 37  1  0
 37 38  1  0
 38 39  1  0
 39 40  1  0
 33  5  1  0
 18 13  1  0
 30 19  1  0
 28 26  1  0
 40 35  1  0
M  END
>  <pIC50>  (755) 
7.0

>  <ChEMBL_ID>  (755) 
CHEMBL3805330

>  <document_journal>  (755) 
J. Med. Chem.

>  <bao_endpoint>  (755) 
BAO_0000190

>  <potential_duplicate>  (755) 
None

>  <uo_units>  (755) 
UO_0000065

>  <canonical_smiles>  (755) 
FC(F)(F)c1cc(NC(=O)CNc2ccc(cc2)c3ccc(NC(=O)C4CC4)nc3)ccc1CN5CCNCC5

>  <parent_molecule_chembl_id>  (755) 
CHEMBL3805330

>  <assay_type>  (755) 
B

>  <src_id>  (755) 
1

>  <ligand_efficiency>  (755) 
None

>  <standard_flag>  (755) 
True

>  <molecule_chembl_id>  (755) 
CHEMBL3805330

>  <target_organism>  (755) 
Homo sapiens

>  <standard_units>  (755) 
nM

>  <record_id>  (755) 
2777921

>  <document_chembl_id>  (755) 
CHEMBL3804768

>  <bao_format>  (755) 
None

>  <data_validity_description>  (755) 
None

>  <activity_id>  (755) 
16588171

>  <standard_type>  (755) 
IC50

>  <target_chembl_id>  (755) 
CHEMBL1862

>  <data_validity_comment>  (755) 
None

>  <published_value>  (755) 
0.1

>  <document_year>  (755) 
2016

>  <target_pref_name>  (755) 
Tyrosine-protein kinase ABL

>  <assay_chembl_id>  (755) 
CHEMBL3806740

>  <standard_relation>  (755) 
=

>  <assay_description>  (755) 
Inhibition of full length human recombinant N-terminal His-tagged ABL (2 to 1130 residues) T315I mutant expressed in baculovirus expression system using FL-peptide 2 substrate preincubated for 10 mins followed by substrate addition measured after 60 mins by mobility shift assay

>  <published_relation>  (755) 
=

>  <standard_value>  (755) 
100

>  <qudt_units>  (755) 
http://www.openphacts.org/units/Nanomolar

>  <target_tax_id>  (755) 
9606

>  <bao_label>  (755) 
None

>  <published_units>  (755) 
uM

>  <pchembl_value>  (755) 
7

>  <published_type>  (755) 
IC50

>  <activity_comment>  (755) 
None

$$$$

     RDKit          

 42 46  0  0  0  0  0  0  0  0999 V2000
    0.0000    0.0000    0.0000 C   0  0  0  0  0  0  0  0  0  0  0  0
    0.0000    0.0000    0.0000 C   0  0  0  0  0  0  0  0  0  0  0  0
    0.0000    0.0000    0.0000 N   0  0  0  0  0  0  0  0  0  0  0  0
    0.0000    0.0000    0.0000 C   0  0  0  0  0  0  0  0  0  0  0  0
    0.0000    0.0000    0.0000 C   0  0  0  0  0  0  0  0  0  0  0  0
    0.0000    0.0000    0.0000 N   0  0  0  0  0  0  0  0  0  0  0  0
    0.0000    0.0000    0.0000 C   0  0  0  0  0  0  0  0  0  0  0  0
    0.0000    0.0000    0.0000 C   0  0  0  0  0  0  0  0  0  0  0  0
    0.0000    0.0000    0.0000 C   0  0  0  0  0  0  0  0  0  0  0  0
    0.0000    0.0000    0.0000 C   0  0  0  0  0  0  0  0  0  0  0  0
    0.0000    0.0000    0.0000 C   0  0  0  0  0  0  0  0  0  0  0  0
    0.0000    0.0000    0.0000 N   0  0  0  0  0  0  0  0  0  0  0  0
    0.0000    0.0000    0.0000 C   0  0  0  0  0  0  0  0  0  0  0  0
    0.0000    0.0000    0.0000 O   0  0  0  0  0  0  0  0  0  0  0  0
    0.0000    0.0000    0.0000 C   0  0  0  0  0  0  0  0  0  0  0  0
    0.0000    0.0000    0.0000 N   0  0  0  0  0  0  0  0  0  0  0  0
    0.0000    0.0000    0.0000 C   0  0  0  0  0  0  0  0  0  0  0  0
    0.0000    0.0000    0.0000 C   0  0  0  0  0  0  0  0  0  0  0  0
    0.0000    0.0000    0.0000 C   0  0  0  0  0  0  0  0  0  0  0  0
    0.0000    0.0000    0.0000 C   0  0  0  0  0  0  0  0  0  0  0  0
    0.0000    0.0000    0.0000 C   0  0  0  0  0  0  0  0  0  0  0  0
    0.0000    0.0000    0.0000 C   0  0  0  0  0  0  0  0  0  0  0  0
    0.0000    0.0000    0.0000 C   0  0  0  0  0  0  0  0  0  0  0  0
    0.0000    0.0000    0.0000 C   0  0  0  0  0  0  0  0  0  0  0  0
    0.0000    0.0000    0.0000 C   0  0  0  0  0  0  0  0  0  0  0  0
    0.0000    0.0000    0.0000 C   0  0  0  0  0  0  0  0  0  0  0  0
    0.0000    0.0000    0.0000 N   0  0  0  0  0  0  0  0  0  0  0  0
    0.0000    0.0000    0.0000 C   0  0  0  0  0  0  0  0  0  0  0  0
    0.0000    0.0000    0.0000 O   0  0  0  0  0  0  0  0  0  0  0  0
    0.0000    0.0000    0.0000 C   0  0  0  0  0  0  0  0  0  0  0  0
    0.0000    0.0000    0.0000 C   0  0  0  0  0  0  0  0  0  0  0  0
    0.0000    0.0000    0.0000 C   0  0  0  0  0  0  0  0  0  0  0  0
    0.0000    0.0000    0.0000 N   0  0  0  0  0  0  0  0  0  0  0  0
    0.0000    0.0000    0.0000 C   0  0  0  0  0  0  0  0  0  0  0  0
    0.0000    0.0000    0.0000 C   0  0  0  0  0  0  0  0  0  0  0  0
    0.0000    0.0000    0.0000 C   0  0  0  0  0  0  0  0  0  0  0  0
    0.0000    0.0000    0.0000 C   0  0  0  0  0  0  0  0  0  0  0  0
    0.0000    0.0000    0.0000 F   0  0  0  0  0  0  0  0  0  0  0  0
    0.0000    0.0000    0.0000 F   0  0  0  0  0  0  0  0  0  0  0  0
    0.0000    0.0000    0.0000 F   0  0  0  0  0  0  0  0  0  0  0  0
    0.0000    0.0000    0.0000 C   0  0  0  0  0  0  0  0  0  0  0  0
    0.0000    0.0000    0.0000 C   0  0  0  0  0  0  0  0  0  0  0  0
  1  2  1  0
  2  3  1  0
  3  4  1  0
  4  5  1  0
  5  6  1  0
  6  7  1  0
  7  8  1  0
  8  9  2  0
  9 10  1  0
 10 11  2  0
 11 12  1  0
 12 13  1  0
 13 14  2  0
 13 15  1  0
 15 16  1  0
 16 17  1  0
 17 18  2  0
 18 19  1  0
 19 20  2  0
 20 21  1  0
 21 22  2  0
 20 23  1  0
 23 24  2  0
 24 25  1  0
 25 26  2  0
 26 27  1  0
 27 28  1  0
 28 29  2  0
 28 30  1  0
 30 31  1  0
 31 32  1  0
 26 33  1  0
 33 34  2  0
 11 35  1  0
 35 36  2  0
 36 37  1  0
 37 38  1  0
 37 39  1  0
 37 40  1  0
  6 41  1  0
 41 42  1  0
 42  3  1  0
 36  8  1  0
 22 17  1  0
 34 23  1  0
 32 30  1  0
M  END
>  <pIC50>  (756) 
7.3

>  <ChEMBL_ID>  (756) 
CHEMBL3805771

>  <document_journal>  (756) 
J. Med. Chem.

>  <bao_endpoint>  (756) 
BAO_0000190

>  <potential_duplicate>  (756) 
None

>  <uo_units>  (756) 
UO_0000065

>  <canonical_smiles>  (756) 
CCN1CCN(Cc2ccc(NC(=O)CNc3ccc(cc3)c4ccc(NC(=O)C5CC5)nc4)cc2C(F)(F)F)CC1

>  <parent_molecule_chembl_id>  (756) 
CHEMBL3805771

>  <assay_type>  (756) 
B

>  <src_id>  (756) 
1

>  <ligand_efficiency>  (756) 
None

>  <standard_flag>  (756) 
True

>  <molecule_chembl_id>  (756) 
CHEMBL3805771

>  <target_organism>  (756) 
Homo sapiens

>  <standard_units>  (756) 
nM

>  <record_id>  (756) 
2777922

>  <document_chembl_id>  (756) 
CHEMBL3804768

>  <bao_format>  (756) 
None

>  <data_validity_description>  (756) 
None

>  <activity_id>  (756) 
16588172

>  <standard_type>  (756) 
IC50

>  <target_chembl_id>  (756) 
CHEMBL1862

>  <data_validity_comment>  (756) 
None

>  <published_value>  (756) 
0.05

>  <document_year>  (756) 
2016

>  <target_pref_name>  (756) 
Tyrosine-protein kinase ABL

>  <assay_chembl_id>  (756) 
CHEMBL3806740

>  <standard_relation>  (756) 
=

>  <assay_description>  (756) 
Inhibition of full length human recombinant N-terminal His-tagged ABL (2 to 1130 residues) T315I mutant expressed in baculovirus expression system using FL-peptide 2 substrate preincubated for 10 mins followed by substrate addition measured after 60 mins by mobility shift assay

>  <published_relation>  (756) 
=

>  <standard_value>  (756) 
50

>  <qudt_units>  (756) 
http://www.openphacts.org/units/Nanomolar

>  <target_tax_id>  (756) 
9606

>  <bao_label>  (756) 
None

>  <published_units>  (756) 
uM

>  <pchembl_value>  (756) 
7.3

>  <published_type>  (756) 
IC50

>  <activity_comment>  (756) 
None

$$$$

     RDKit          

 42 46  0  0  0  0  0  0  0  0999 V2000
    0.0000    0.0000    0.0000 C   0  0  0  0  0  0  0  0  0  0  0  0
    0.0000    0.0000    0.0000 N   0  0  0  0  0  0  0  0  0  0  0  0
    0.0000    0.0000    0.0000 C   0  0  0  0  0  0  0  0  0  0  0  0
    0.0000    0.0000    0.0000 C   0  0  0  0  0  0  0  0  0  0  0  0
    0.0000    0.0000    0.0000 N   0  0  0  0  0  0  0  0  0  0  0  0
    0.0000    0.0000    0.0000 C   0  0  0  0  0  0  0  0  0  0  0  0
    0.0000    0.0000    0.0000 C   0  0  0  0  0  0  0  0  0  0  0  0
    0.0000    0.0000    0.0000 C   0  0  0  0  0  0  0  0  0  0  0  0
    0.0000    0.0000    0.0000 C   0  0  0  0  0  0  0  0  0  0  0  0
    0.0000    0.0000    0.0000 C   0  0  0  0  0  0  0  0  0  0  0  0
    0.0000    0.0000    0.0000 N   0  0  0  0  0  0  0  0  0  0  0  0
    0.0000    0.0000    0.0000 C   0  0  0  0  0  0  0  0  0  0  0  0
    0.0000    0.0000    0.0000 O   0  0  0  0  0  0  0  0  0  0  0  0
    0.0000    0.0000    0.0000 C   0  0  0  0  0  0  0  0  0  0  0  0
    0.0000    0.0000    0.0000 N   0  0  0  0  0  0  0  0  0  0  0  0
    0.0000    0.0000    0.0000 C   0  0  0  0  0  0  0  0  0  0  0  0
    0.0000    0.0000    0.0000 C   0  0  0  0  0  0  0  0  0  0  0  0
    0.0000    0.0000    0.0000 C   0  0  0  0  0  0  0  0  0  0  0  0
    0.0000    0.0000    0.0000 C   0  0  0  0  0  0  0  0  0  0  0  0
    0.0000    0.0000    0.0000 C   0  0  0  0  0  0  0  0  0  0  0  0
    0.0000    0.0000    0.0000 C   0  0  0  0  0  0  0  0  0  0  0  0
    0.0000    0.0000    0.0000 F   0  0  0  0  0  0  0  0  0  0  0  0
    0.0000    0.0000    0.0000 C   0  0  0  0  0  0  0  0  0  0  0  0
    0.0000    0.0000    0.0000 C   0  0  0  0  0  0  0  0  0  0  0  0
    0.0000    0.0000    0.0000 C   0  0  0  0  0  0  0  0  0  0  0  0
    0.0000    0.0000    0.0000 C   0  0  0  0  0  0  0  0  0  0  0  0
    0.0000    0.0000    0.0000 N   0  0  0  0  0  0  0  0  0  0  0  0
    0.0000    0.0000    0.0000 C   0  0  0  0  0  0  0  0  0  0  0  0
    0.0000    0.0000    0.0000 O   0  0  0  0  0  0  0  0  0  0  0  0
    0.0000    0.0000    0.0000 C   0  0  0  0  0  0  0  0  0  0  0  0
    0.0000    0.0000    0.0000 C   0  0  0  0  0  0  0  0  0  0  0  0
    0.0000    0.0000    0.0000 C   0  0  0  0  0  0  0  0  0  0  0  0
    0.0000    0.0000    0.0000 N   0  0  0  0  0  0  0  0  0  0  0  0
    0.0000    0.0000    0.0000 C   0  0  0  0  0  0  0  0  0  0  0  0
    0.0000    0.0000    0.0000 C   0  0  0  0  0  0  0  0  0  0  0  0
    0.0000    0.0000    0.0000 C   0  0  0  0  0  0  0  0  0  0  0  0
    0.0000    0.0000    0.0000 C   0  0  0  0  0  0  0  0  0  0  0  0
    0.0000    0.0000    0.0000 F   0  0  0  0  0  0  0  0  0  0  0  0
    0.0000    0.0000    0.0000 F   0  0  0  0  0  0  0  0  0  0  0  0
    0.0000    0.0000    0.0000 F   0  0  0  0  0  0  0  0  0  0  0  0
    0.0000    0.0000    0.0000 C   0  0  0  0  0  0  0  0  0  0  0  0
    0.0000    0.0000    0.0000 C   0  0  0  0  0  0  0  0  0  0  0  0
  1  2  1  0
  2  3  1  0
  3  4  1  0
  4  5  1  0
  5  6  1  0
  6  7  1  0
  7  8  2  0
  8  9  1  0
  9 10  2  0
 10 11  1  0
 11 12  1  0
 12 13  2  0
 12 14  1  0
 14 15  1  0
 15 16  1  0
 16 17  2  0
 17 18  1  0
 18 19  2  0
 19 20  1  0
 20 21  2  0
 21 22  1  0
 19 23  1  0
 23 24  2  0
 24 25  1  0
 25 26  2  0
 26 27  1  0
 27 28  1  0
 28 29  2  0
 28 30  1  0
 30 31  1  0
 31 32  1  0
 26 33  1  0
 33 34  2  0
 10 35  1  0
 35 36  2  0
 36 37  1  0
 37 38  1  0
 37 39  1  0
 37 40  1  0
  5 41  1  0
 41 42  1  0
 42  2  1  0
 36  7  1  0
 21 16  1  0
 34 23  1  0
 32 30  1  0
M  END
>  <pIC50>  (757) 
7.7

>  <ChEMBL_ID>  (757) 
CHEMBL3806189

>  <document_journal>  (757) 
J. Med. Chem.

>  <bao_endpoint>  (757) 
BAO_0000190

>  <potential_duplicate>  (757) 
None

>  <uo_units>  (757) 
UO_0000065

>  <canonical_smiles>  (757) 
CN1CCN(Cc2ccc(NC(=O)CNc3ccc(cc3F)c4ccc(NC(=O)C5CC5)nc4)cc2C(F)(F)F)CC1

>  <parent_molecule_chembl_id>  (757) 
CHEMBL3806189

>  <assay_type>  (757) 
B

>  <src_id>  (757) 
1

>  <ligand_efficiency>  (757) 
None

>  <standard_flag>  (757) 
True

>  <molecule_chembl_id>  (757) 
CHEMBL3806189

>  <target_organism>  (757) 
Homo sapiens

>  <standard_units>  (757) 
nM

>  <record_id>  (757) 
2777923

>  <document_chembl_id>  (757) 
CHEMBL3804768

>  <bao_format>  (757) 
None

>  <data_validity_description>  (757) 
None

>  <activity_id>  (757) 
16588173

>  <standard_type>  (757) 
IC50

>  <target_chembl_id>  (757) 
CHEMBL1862

>  <data_validity_comment>  (757) 
None

>  <published_value>  (757) 
0.02

>  <document_year>  (757) 
2016

>  <target_pref_name>  (757) 
Tyrosine-protein kinase ABL

>  <assay_chembl_id>  (757) 
CHEMBL3806740

>  <standard_relation>  (757) 
=

>  <assay_description>  (757) 
Inhibition of full length human recombinant N-terminal His-tagged ABL (2 to 1130 residues) T315I mutant expressed in baculovirus expression system using FL-peptide 2 substrate preincubated for 10 mins followed by substrate addition measured after 60 mins by mobility shift assay

>  <published_relation>  (757) 
=

>  <standard_value>  (757) 
20

>  <qudt_units>  (757) 
http://www.openphacts.org/units/Nanomolar

>  <target_tax_id>  (757) 
9606

>  <bao_label>  (757) 
None

>  <published_units>  (757) 
uM

>  <pchembl_value>  (757) 
7.7

>  <published_type>  (757) 
IC50

>  <activity_comment>  (757) 
None

$$$$

     RDKit          

 41 45  0  0  0  0  0  0  0  0999 V2000
    0.0000    0.0000    0.0000 C   0  0  0  0  0  0  0  0  0  0  0  0
    0.0000    0.0000    0.0000 O   0  0  0  0  0  0  0  0  0  0  0  0
    0.0000    0.0000    0.0000 C   0  0  0  0  0  0  0  0  0  0  0  0
    0.0000    0.0000    0.0000 O   0  0  0  0  0  0  0  0  0  0  0  0
    0.0000    0.0000    0.0000 C   0  0  0  0  0  0  0  0  0  0  0  0
    0.0000    0.0000    0.0000 C   0  0  0  0  0  0  0  0  0  0  0  0
    0.0000    0.0000    0.0000 C   0  0  0  0  0  0  0  0  0  0  0  0
    0.0000    0.0000    0.0000 C   0  0  0  0  0  0  0  0  0  0  0  0
    0.0000    0.0000    0.0000 C   0  0  0  0  0  0  0  0  0  0  0  0
    0.0000    0.0000    0.0000 N   0  0  0  0  0  0  0  0  0  0  0  0
    0.0000    0.0000    0.0000 C   0  0  0  0  0  0  0  0  0  0  0  0
    0.0000    0.0000    0.0000 C   0  0  0  0  0  0  0  0  0  0  0  0
    0.0000    0.0000    0.0000 C   0  0  0  0  0  0  0  0  0  0  0  0
    0.0000    0.0000    0.0000 C   0  0  0  0  0  0  0  0  0  0  0  0
    0.0000    0.0000    0.0000 N   0  0  0  0  0  0  0  0  0  0  0  0
    0.0000    0.0000    0.0000 C   0  0  0  0  0  0  0  0  0  0  0  0
    0.0000    0.0000    0.0000 O   0  0  0  0  0  0  0  0  0  0  0  0
    0.0000    0.0000    0.0000 C   0  0  0  0  0  0  0  0  0  0  0  0
    0.0000    0.0000    0.0000 C   0  0  0  0  0  0  0  0  0  0  0  0
    0.0000    0.0000    0.0000 C   0  0  0  0  0  0  0  0  0  0  0  0
    0.0000    0.0000    0.0000 C   0  0  0  0  0  0  0  0  0  0  0  0
    0.0000    0.0000    0.0000 C   0  0  0  0  0  0  0  0  0  0  0  0
    0.0000    0.0000    0.0000 C   0  0  0  0  0  0  0  0  0  0  0  0
    0.0000    0.0000    0.0000 C   0  0  0  0  0  0  0  0  0  0  0  0
    0.0000    0.0000    0.0000 F   0  0  0  0  0  0  0  0  0  0  0  0
    0.0000    0.0000    0.0000 F   0  0  0  0  0  0  0  0  0  0  0  0
    0.0000    0.0000    0.0000 F   0  0  0  0  0  0  0  0  0  0  0  0
    0.0000    0.0000    0.0000 N   0  0  0  0  0  0  0  0  0  0  0  0
    0.0000    0.0000    0.0000 C   0  0  0  0  0  0  0  0  0  0  0  0
    0.0000    0.0000    0.0000 N   0  0  0  0  0  0  0  0  0  0  0  0
    0.0000    0.0000    0.0000 C   0  0  0  0  0  0  0  0  0  0  0  0
    0.0000    0.0000    0.0000 C   0  0  0  0  0  0  0  0  0  0  0  0
    0.0000    0.0000    0.0000 C   0  0  0  0  0  0  0  0  0  0  0  0
    0.0000    0.0000    0.0000 C   0  0  0  0  0  0  0  0  0  0  0  0
    0.0000    0.0000    0.0000 C   0  0  0  0  0  0  0  0  0  0  0  0
    0.0000    0.0000    0.0000 C   0  0  0  0  0  0  0  0  0  0  0  0
    0.0000    0.0000    0.0000 C   0  0  0  0  0  0  0  0  0  0  0  0
    0.0000    0.0000    0.0000 C   0  0  0  0  0  0  0  0  0  0  0  0
    0.0000    0.0000    0.0000 N   0  0  0  0  0  0  0  0  0  0  0  0
    0.0000    0.0000    0.0000 C   0  0  0  0  0  0  0  0  0  0  0  0
    0.0000    0.0000    0.0000 N   0  0  0  0  0  0  0  0  0  0  0  0
  1  2  1  0
  2  3  1  0
  3  4  2  0
  3  5  1  0
  5  6  2  0
  6  7  1  0
  7  8  2  0
  8  9  1  0
  9 10  1  0
 10 11  1  0
 11 12  1  0
 12 13  2  0
 13 14  1  0
 14 15  1  0
 15 16  1  0
 16 17  2  0
 16 18  1  0
 18 19  2  0
 19 20  1  0
 20 21  2  0
 21 22  1  0
 22 23  2  0
 22 24  1  0
 24 25  1  0
 24 26  1  0
 24 27  1  0
 20 28  1  0
 28 29  1  0
 29 30  2  0
 30 31  1  0
 31 32  1  0
 31 33  2  0
 14 34  2  0
 34 35  1  0
 35 36  2  0
 36 37  1  0
  9 38  2  0
 38 39  1  0
 39 40  2  0
 40 41  1  0
 41  5  1  0
 40  7  1  0
 36 12  1  0
 23 18  1  0
 33 28  1  0
M  END
>  <pIC50>  (758) 
7.4975

>  <ChEMBL_ID>  (758) 
CHEMBL3808884

>  <document_journal>  (758) 
J. Med. Chem.

>  <bao_endpoint>  (758) 
BAO_0000190

>  <potential_duplicate>  (758) 
None

>  <uo_units>  (758) 
UO_0000065

>  <canonical_smiles>  (758) 
COC(=O)c1cc2cc(NCc3cc(NC(=O)c4cc(cc(c4)C(F)(F)F)n5cnc(C)c5)ccc3C)cnc2[nH]1

>  <parent_molecule_chembl_id>  (758) 
CHEMBL3808884

>  <assay_type>  (758) 
B

>  <src_id>  (758) 
1

>  <ligand_efficiency>  (758) 
None

>  <standard_flag>  (758) 
True

>  <molecule_chembl_id>  (758) 
CHEMBL3808884

>  <target_organism>  (758) 
Homo sapiens

>  <standard_units>  (758) 
nM

>  <record_id>  (758) 
2780310

>  <document_chembl_id>  (758) 
CHEMBL3808348

>  <bao_format>  (758) 
None

>  <data_validity_description>  (758) 
None

>  <activity_id>  (758) 
16593612

>  <standard_type>  (758) 
IC50

>  <target_chembl_id>  (758) 
CHEMBL1862

>  <data_validity_comment>  (758) 
None

>  <published_value>  (758) 
6

>  <document_year>  (758) 
2016

>  <target_pref_name>  (758) 
Tyrosine-protein kinase ABL

>  <assay_chembl_id>  (758) 
CHEMBL3812144

>  <standard_relation>  (758) 
=

>  <assay_description>  (758) 
Inhibition of His-tagged full length human recombinant wild type ABL expressed in baculovirus using Fluorescein-Poly GT as substrate

>  <published_relation>  (758) 
=

>  <standard_value>  (758) 
6

>  <qudt_units>  (758) 
http://www.openphacts.org/units/Nanomolar

>  <target_tax_id>  (758) 
9606

>  <bao_label>  (758) 
None

>  <published_units>  (758) 
nM

>  <pchembl_value>  (758) 
8.22

>  <published_type>  (758) 
IC50

>  <activity_comment>  (758) 
None

$$$$

     RDKit          

 24 27  0  0  0  0  0  0  0  0999 V2000
    0.0000    0.0000    0.0000 C   0  0  0  0  0  0  0  0  0  0  0  0
    0.0000    0.0000    0.0000 C   0  0  0  0  0  0  0  0  0  0  0  0
    0.0000    0.0000    0.0000 C   0  0  0  0  0  0  0  0  0  0  0  0
    0.0000    0.0000    0.0000 C   0  0  0  0  0  0  0  0  0  0  0  0
    0.0000    0.0000    0.0000 C   0  0  0  0  0  0  0  0  0  0  0  0
    0.0000    0.0000    0.0000 C   0  0  0  0  0  0  0  0  0  0  0  0
    0.0000    0.0000    0.0000 N   0  0  0  0  0  0  0  0  0  0  0  0
    0.0000    0.0000    0.0000 C   0  0  0  0  0  0  0  0  0  0  0  0
    0.0000    0.0000    0.0000 N   0  0  0  0  0  0  0  0  0  0  0  0
    0.0000    0.0000    0.0000 C   0  0  0  0  0  0  0  0  0  0  0  0
    0.0000    0.0000    0.0000 N   0  0  0  0  0  0  0  0  0  0  0  0
    0.0000    0.0000    0.0000 C   0  0  0  0  0  0  0  0  0  0  0  0
    0.0000    0.0000    0.0000 C   0  0  0  0  0  0  0  0  0  0  0  0
    0.0000    0.0000    0.0000 C   0  0  0  0  0  0  0  0  0  0  0  0
    0.0000    0.0000    0.0000 N   0  0  0  0  0  0  0  0  0  0  0  0
    0.0000    0.0000    0.0000 N   0  0  0  0  0  0  0  0  0  0  0  0
    0.0000    0.0000    0.0000 C   0  0  0  0  0  0  0  0  0  0  0  0
    0.0000    0.0000    0.0000 C   0  0  0  0  0  0  0  0  0  0  0  0
    0.0000    0.0000    0.0000 C   0  0  0  0  0  0  0  0  0  0  0  0
    0.0000    0.0000    0.0000 C   0  0  0  0  0  0  0  0  0  0  0  0
    0.0000    0.0000    0.0000 C   0  0  0  0  0  0  0  0  0  0  0  0
    0.0000    0.0000    0.0000 C   0  0  0  0  0  0  0  0  0  0  0  0
    0.0000    0.0000    0.0000 C   0  0  0  0  0  0  0  0  0  0  0  0
    0.0000    0.0000    0.0000 C   0  0  0  0  0  0  0  0  0  0  0  0
  1  2  1  0
  2  3  1  0
  3  4  1  0
  4  5  1  0
  5  6  1  0
  4  7  1  0
  7  8  1  0
  8  9  2  0
  9 10  1  0
 10 11  2  0
 11 12  1  0
 12 13  2  0
 13 14  1  0
 14 15  2  0
 15 16  1  0
 16 17  1  0
 17 18  2  0
 18 19  1  0
 19 20  2  0
 20 21  1  0
 21 22  2  0
 22 23  1  0
 23 24  2  0
  6  1  1  0
 13  8  1  0
 16 12  1  0
 24 19  1  0
M  END
>  <pIC50>  (759) 
4.3

>  <ChEMBL_ID>  (759) 
CHEMBL3824215

>  <document_journal>  (759) 
Bioorg. Med. Chem. Lett.

>  <bao_endpoint>  (759) 
BAO_0000190

>  <potential_duplicate>  (759) 
None

>  <uo_units>  (759) 
UO_0000065

>  <canonical_smiles>  (759) 
C1CCC(CC1)Nc2ncnc3c2cnn3\C=C\c4ccccc4

>  <parent_molecule_chembl_id>  (759) 
CHEMBL3824215

>  <assay_type>  (759) 
B

>  <src_id>  (759) 
1

>  <ligand_efficiency>  (759) 
None

>  <standard_flag>  (759) 
True

>  <molecule_chembl_id>  (759) 
CHEMBL3824215

>  <target_organism>  (759) 
Homo sapiens

>  <standard_units>  (759) 
nM

>  <record_id>  (759) 
2786085

>  <document_chembl_id>  (759) 
CHEMBL3822426

>  <bao_format>  (759) 
None

>  <data_validity_description>  (759) 
None

>  <activity_id>  (759) 
16639069

>  <standard_type>  (759) 
IC50

>  <target_chembl_id>  (759) 
CHEMBL1862

>  <data_validity_comment>  (759) 
None

>  <published_value>  (759) 
50

>  <document_year>  (759) 
2016

>  <target_pref_name>  (759) 
Tyrosine-protein kinase ABL

>  <assay_chembl_id>  (759) 
CHEMBL3826525

>  <standard_relation>  (759) 
=

>  <assay_description>  (759) 
Allosteric inhibition of recombinant human N-terminal His6-tagged ABL (27-end residues) T315I mutant expressed in baculovirus infected sf21 cells using Abl-tide as substrate incubated for 10 mins in presence of [gamma32P]ATP by scintillation counting method

>  <published_relation>  (759) 
=

>  <standard_value>  (759) 
50000

>  <qudt_units>  (759) 
http://www.openphacts.org/units/Nanomolar

>  <target_tax_id>  (759) 
9606

>  <bao_label>  (759) 
None

>  <published_units>  (759) 
uM

>  <pchembl_value>  (759) 
4.3

>  <published_type>  (759) 
IC50

>  <activity_comment>  (759) 
None

$$$$

     RDKit          

 24 27  0  0  0  0  0  0  0  0999 V2000
    0.0000    0.0000    0.0000 C   0  0  0  0  0  0  0  0  0  0  0  0
    0.0000    0.0000    0.0000 C   0  0  0  0  0  0  0  0  0  0  0  0
    0.0000    0.0000    0.0000 C   0  0  0  0  0  0  0  0  0  0  0  0
    0.0000    0.0000    0.0000 C   0  0  0  0  0  0  0  0  0  0  0  0
    0.0000    0.0000    0.0000 N   0  0  0  0  0  0  0  0  0  0  0  0
    0.0000    0.0000    0.0000 C   0  0  0  0  0  0  0  0  0  0  0  0
    0.0000    0.0000    0.0000 C   0  0  0  0  0  0  0  0  0  0  0  0
    0.0000    0.0000    0.0000 C   0  0  0  0  0  0  0  0  0  0  0  0
    0.0000    0.0000    0.0000 N   0  0  0  0  0  0  0  0  0  0  0  0
    0.0000    0.0000    0.0000 C   0  0  0  0  0  0  0  0  0  0  0  0
    0.0000    0.0000    0.0000 N   0  0  0  0  0  0  0  0  0  0  0  0
    0.0000    0.0000    0.0000 C   0  0  0  0  0  0  0  0  0  0  0  0
    0.0000    0.0000    0.0000 C   0  0  0  0  0  0  0  0  0  0  0  0
    0.0000    0.0000    0.0000 C   0  0  0  0  0  0  0  0  0  0  0  0
    0.0000    0.0000    0.0000 N   0  0  0  0  0  0  0  0  0  0  0  0
    0.0000    0.0000    0.0000 N   0  0  0  0  0  0  0  0  0  0  0  0
    0.0000    0.0000    0.0000 C   0  0  0  0  0  0  0  0  0  0  0  0
    0.0000    0.0000    0.0000 C   0  0  0  0  0  0  0  0  0  0  0  0
    0.0000    0.0000    0.0000 C   0  0  0  0  0  0  0  0  0  0  0  0
    0.0000    0.0000    0.0000 C   0  0  0  0  0  0  0  0  0  0  0  0
    0.0000    0.0000    0.0000 C   0  0  0  0  0  0  0  0  0  0  0  0
    0.0000    0.0000    0.0000 C   0  0  0  0  0  0  0  0  0  0  0  0
    0.0000    0.0000    0.0000 C   0  0  0  0  0  0  0  0  0  0  0  0
    0.0000    0.0000    0.0000 C   0  0  0  0  0  0  0  0  0  0  0  0
  1  2  1  0
  2  3  1  0
  3  4  1  0
  4  5  1  0
  5  6  1  0
  6  7  1  0
  5  8  1  0
  8  9  2  0
  9 10  1  0
 10 11  2  0
 11 12  1  0
 12 13  2  0
 13 14  1  0
 14 15  2  0
 15 16  1  0
 16 17  1  0
 17 18  2  0
 18 19  1  0
 19 20  2  0
 20 21  1  0
 21 22  2  0
 22 23  1  0
 23 24  2  0
  7  1  1  0
 13  8  1  0
 16 12  1  0
 24 19  1  0
M  END
>  <pIC50>  (760) 
4.7

>  <ChEMBL_ID>  (760) 
CHEMBL3823628

>  <document_journal>  (760) 
Bioorg. Med. Chem. Lett.

>  <bao_endpoint>  (760) 
BAO_0000190

>  <potential_duplicate>  (760) 
None

>  <uo_units>  (760) 
UO_0000065

>  <canonical_smiles>  (760) 
C1CCCN(CC1)c2ncnc3c2cnn3\C=C\c4ccccc4

>  <parent_molecule_chembl_id>  (760) 
CHEMBL3823628

>  <assay_type>  (760) 
B

>  <src_id>  (760) 
1

>  <ligand_efficiency>  (760) 
None

>  <standard_flag>  (760) 
True

>  <molecule_chembl_id>  (760) 
CHEMBL3823628

>  <target_organism>  (760) 
Homo sapiens

>  <standard_units>  (760) 
nM

>  <record_id>  (760) 
2786086

>  <document_chembl_id>  (760) 
CHEMBL3822426

>  <bao_format>  (760) 
None

>  <data_validity_description>  (760) 
None

>  <activity_id>  (760) 
16639070

>  <standard_type>  (760) 
IC50

>  <target_chembl_id>  (760) 
CHEMBL1862

>  <data_validity_comment>  (760) 
None

>  <published_value>  (760) 
20

>  <document_year>  (760) 
2016

>  <target_pref_name>  (760) 
Tyrosine-protein kinase ABL

>  <assay_chembl_id>  (760) 
CHEMBL3826525

>  <standard_relation>  (760) 
=

>  <assay_description>  (760) 
Allosteric inhibition of recombinant human N-terminal His6-tagged ABL (27-end residues) T315I mutant expressed in baculovirus infected sf21 cells using Abl-tide as substrate incubated for 10 mins in presence of [gamma32P]ATP by scintillation counting method

>  <published_relation>  (760) 
=

>  <standard_value>  (760) 
20000

>  <qudt_units>  (760) 
http://www.openphacts.org/units/Nanomolar

>  <target_tax_id>  (760) 
9606

>  <bao_label>  (760) 
None

>  <published_units>  (760) 
uM

>  <pchembl_value>  (760) 
4.7

>  <published_type>  (760) 
IC50

>  <activity_comment>  (760) 
None

$$$$

     RDKit          

 28 31  0  0  0  0  0  0  0  0999 V2000
    0.0000    0.0000    0.0000 C   0  0  0  0  0  0  0  0  0  0  0  0
    0.0000    0.0000    0.0000 N   0  0  0  0  0  0  0  0  0  0  0  0
    0.0000    0.0000    0.0000 C   0  0  0  0  0  0  0  0  0  0  0  0
    0.0000    0.0000    0.0000 C   0  0  0  0  0  0  0  0  0  0  0  0
    0.0000    0.0000    0.0000 C   0  0  0  0  0  0  0  0  0  0  0  0
    0.0000    0.0000    0.0000 C   0  0  0  0  0  0  0  0  0  0  0  0
    0.0000    0.0000    0.0000 N   0  0  0  0  0  0  0  0  0  0  0  0
    0.0000    0.0000    0.0000 C   0  0  0  0  0  0  0  0  0  0  0  0
    0.0000    0.0000    0.0000 C   0  0  0  0  0  0  0  0  0  0  0  0
    0.0000    0.0000    0.0000 N   0  0  0  0  0  0  0  0  0  0  0  0
    0.0000    0.0000    0.0000 N   0  0  0  0  0  0  0  0  0  0  0  0
    0.0000    0.0000    0.0000 C   0  0  0  0  0  0  0  0  0  0  0  0
    0.0000    0.0000    0.0000 C   0  0  0  0  0  0  0  0  0  0  0  0
    0.0000    0.0000    0.0000 C   0  0  0  0  0  0  0  0  0  0  0  0
    0.0000    0.0000    0.0000 C   0  0  0  0  0  0  0  0  0  0  0  0
    0.0000    0.0000    0.0000 C   0  0  0  0  0  0  0  0  0  0  0  0
    0.0000    0.0000    0.0000 C   0  0  0  0  0  0  0  0  0  0  0  0
    0.0000    0.0000    0.0000 C   0  0  0  0  0  0  0  0  0  0  0  0
    0.0000    0.0000    0.0000 C   0  0  0  0  0  0  0  0  0  0  0  0
    0.0000    0.0000    0.0000 C   0  0  0  0  0  0  0  0  0  0  0  0
    0.0000    0.0000    0.0000 C   0  0  0  0  0  0  0  0  0  0  0  0
    0.0000    0.0000    0.0000 N   0  0  0  0  0  0  0  0  0  0  0  0
    0.0000    0.0000    0.0000 N   0  0  0  0  0  0  0  0  0  0  0  0
    0.0000    0.0000    0.0000 C   0  0  0  0  0  0  0  0  0  0  0  0
    0.0000    0.0000    0.0000 N   0  0  0  0  0  0  0  0  0  0  0  0
    0.0000    0.0000    0.0000 C   0  0  0  0  0  0  0  0  0  0  0  0
    0.0000    0.0000    0.0000 C   0  0  0  0  0  0  0  0  0  0  0  0
    0.0000    0.0000    0.0000 C   0  0  0  0  0  0  0  0  0  0  0  0
  1  2  1  0
  2  3  1  0
  2  4  1  0
  4  5  1  0
  5  6  1  0
  6  7  1  0
  7  8  1  0
  8  9  1  0
  9 10  1  0
 10 11  1  0
 11 12  2  0
 12 13  1  0
 13 14  2  0
 14 15  1  0
 15 16  2  0
 16 17  1  0
 16 18  1  0
 18 19  2  0
 12 20  1  0
 20 21  2  0
 21 22  1  0
 21 23  1  0
 23 24  2  0
 24 25  1  0
 25 26  2  0
  7 27  1  0
 27 28  1  0
 28  4  1  0
 26 10  1  0
 19 13  1  0
 26 20  1  0
M  END
>  <pIC50>  (761) 
5.2

>  <ChEMBL_ID>  (761) 
CHEMBL3823212

>  <document_journal>  (761) 
J. Med. Chem.

>  <bao_endpoint>  (761) 
BAO_0000190

>  <potential_duplicate>  (761) 
None

>  <uo_units>  (761) 
UO_0000065

>  <canonical_smiles>  (761) 
CN(C)C1CCN(CCn2nc(c3ccc(C)cc3)c4c(N)ncnc24)CC1

>  <parent_molecule_chembl_id>  (761) 
CHEMBL3823212

>  <assay_type>  (761) 
B

>  <src_id>  (761) 
1

>  <ligand_efficiency>  (761) 
None

>  <standard_flag>  (761) 
True

>  <molecule_chembl_id>  (761) 
CHEMBL3823212

>  <target_organism>  (761) 
Homo sapiens

>  <standard_units>  (761) 
nM

>  <record_id>  (761) 
2786054

>  <document_chembl_id>  (761) 
CHEMBL3822371

>  <bao_format>  (761) 
None

>  <data_validity_description>  (761) 
None

>  <activity_id>  (761) 
16639965

>  <standard_type>  (761) 
IC50

>  <target_chembl_id>  (761) 
CHEMBL1862

>  <data_validity_comment>  (761) 
None

>  <published_value>  (761) 
6323

>  <document_year>  (761) 
2016

>  <target_pref_name>  (761) 
Tyrosine-protein kinase ABL

>  <assay_chembl_id>  (761) 
CHEMBL3826738

>  <standard_relation>  (761) 
=

>  <assay_description>  (761) 
Inhibition of human ABL using EAIYAAPFAKKK as substrate in presence of [gamma-33P]ATP

>  <published_relation>  (761) 
=

>  <standard_value>  (761) 
6323

>  <qudt_units>  (761) 
http://www.openphacts.org/units/Nanomolar

>  <target_tax_id>  (761) 
9606

>  <bao_label>  (761) 
None

>  <published_units>  (761) 
nM

>  <pchembl_value>  (761) 
5.2

>  <published_type>  (761) 
IC50

>  <activity_comment>  (761) 
None

$$$$

     RDKit          

 29 32  0  0  0  0  0  0  0  0999 V2000
    0.0000    0.0000    0.0000 C   0  0  0  0  0  0  0  0  0  0  0  0
    0.0000    0.0000    0.0000 N   0  0  0  0  0  0  0  0  0  0  0  0
    0.0000    0.0000    0.0000 C   0  0  0  0  0  0  0  0  0  0  0  0
    0.0000    0.0000    0.0000 C   0  0  0  0  0  0  0  0  0  0  0  0
    0.0000    0.0000    0.0000 C   0  0  0  0  0  0  0  0  0  0  0  0
    0.0000    0.0000    0.0000 C   0  0  0  0  0  0  0  0  0  0  0  0
    0.0000    0.0000    0.0000 C   0  0  0  0  0  0  0  0  0  0  0  0
    0.0000    0.0000    0.0000 N   0  0  0  0  0  0  0  0  0  0  0  0
    0.0000    0.0000    0.0000 C   0  0  0  0  0  0  0  0  0  0  0  0
    0.0000    0.0000    0.0000 C   0  0  0  0  0  0  0  0  0  0  0  0
    0.0000    0.0000    0.0000 N   0  0  0  0  0  0  0  0  0  0  0  0
    0.0000    0.0000    0.0000 N   0  0  0  0  0  0  0  0  0  0  0  0
    0.0000    0.0000    0.0000 C   0  0  0  0  0  0  0  0  0  0  0  0
    0.0000    0.0000    0.0000 C   0  0  0  0  0  0  0  0  0  0  0  0
    0.0000    0.0000    0.0000 C   0  0  0  0  0  0  0  0  0  0  0  0
    0.0000    0.0000    0.0000 C   0  0  0  0  0  0  0  0  0  0  0  0
    0.0000    0.0000    0.0000 C   0  0  0  0  0  0  0  0  0  0  0  0
    0.0000    0.0000    0.0000 C   0  0  0  0  0  0  0  0  0  0  0  0
    0.0000    0.0000    0.0000 C   0  0  0  0  0  0  0  0  0  0  0  0
    0.0000    0.0000    0.0000 C   0  0  0  0  0  0  0  0  0  0  0  0
    0.0000    0.0000    0.0000 C   0  0  0  0  0  0  0  0  0  0  0  0
    0.0000    0.0000    0.0000 C   0  0  0  0  0  0  0  0  0  0  0  0
    0.0000    0.0000    0.0000 N   0  0  0  0  0  0  0  0  0  0  0  0
    0.0000    0.0000    0.0000 N   0  0  0  0  0  0  0  0  0  0  0  0
    0.0000    0.0000    0.0000 C   0  0  0  0  0  0  0  0  0  0  0  0
    0.0000    0.0000    0.0000 N   0  0  0  0  0  0  0  0  0  0  0  0
    0.0000    0.0000    0.0000 C   0  0  0  0  0  0  0  0  0  0  0  0
    0.0000    0.0000    0.0000 C   0  0  0  0  0  0  0  0  0  0  0  0
    0.0000    0.0000    0.0000 C   0  0  0  0  0  0  0  0  0  0  0  0
  1  2  1  0
  2  3  1  0
  2  4  1  0
  4  5  1  0
  5  6  1  0
  6  7  1  0
  7  8  1  0
  8  9  1  0
  9 10  1  0
 10 11  1  0
 11 12  1  0
 12 13  2  0
 13 14  1  0
 14 15  2  0
 15 16  1  0
 16 17  2  0
 17 18  1  0
 17 19  1  0
 19 20  2  0
 13 21  1  0
 21 22  2  0
 22 23  1  0
 22 24  1  0
 24 25  2  0
 25 26  1  0
 26 27  2  0
  8 28  1  0
 28 29  1  0
 29  5  1  0
 27 11  1  0
 20 14  1  0
 27 21  1  0
M  END
>  <pIC50>  (762) 
5.12

>  <ChEMBL_ID>  (762) 
CHEMBL3823849

>  <document_journal>  (762) 
J. Med. Chem.

>  <bao_endpoint>  (762) 
BAO_0000190

>  <potential_duplicate>  (762) 
None

>  <uo_units>  (762) 
UO_0000065

>  <canonical_smiles>  (762) 
CN(C)CC1CCN(CCn2nc(c3ccc(C)cc3)c4c(N)ncnc24)CC1

>  <parent_molecule_chembl_id>  (762) 
CHEMBL3823849

>  <assay_type>  (762) 
B

>  <src_id>  (762) 
1

>  <ligand_efficiency>  (762) 
None

>  <standard_flag>  (762) 
True

>  <molecule_chembl_id>  (762) 
CHEMBL3823849

>  <target_organism>  (762) 
Homo sapiens

>  <standard_units>  (762) 
nM

>  <record_id>  (762) 
2786055

>  <document_chembl_id>  (762) 
CHEMBL3822371

>  <bao_format>  (762) 
None

>  <data_validity_description>  (762) 
None

>  <activity_id>  (762) 
16639966

>  <standard_type>  (762) 
IC50

>  <target_chembl_id>  (762) 
CHEMBL1862

>  <data_validity_comment>  (762) 
None

>  <published_value>  (762) 
7525

>  <document_year>  (762) 
2016

>  <target_pref_name>  (762) 
Tyrosine-protein kinase ABL

>  <assay_chembl_id>  (762) 
CHEMBL3826738

>  <standard_relation>  (762) 
=

>  <assay_description>  (762) 
Inhibition of human ABL using EAIYAAPFAKKK as substrate in presence of [gamma-33P]ATP

>  <published_relation>  (762) 
=

>  <standard_value>  (762) 
7525

>  <qudt_units>  (762) 
http://www.openphacts.org/units/Nanomolar

>  <target_tax_id>  (762) 
9606

>  <bao_label>  (762) 
None

>  <published_units>  (762) 
nM

>  <pchembl_value>  (762) 
5.12

>  <published_type>  (762) 
IC50

>  <activity_comment>  (762) 
None

$$$$

     RDKit          

 30 33  0  0  0  0  0  0  0  0999 V2000
    0.0000    0.0000    0.0000 C   0  0  0  0  0  0  0  0  0  0  0  0
    0.0000    0.0000    0.0000 N   0  0  0  0  0  0  0  0  0  0  0  0
    0.0000    0.0000    0.0000 C   0  0  0  0  0  0  0  0  0  0  0  0
    0.0000    0.0000    0.0000 C   0  0  0  0  0  0  0  0  0  0  0  0
    0.0000    0.0000    0.0000 C   0  0  0  0  0  0  0  0  0  0  0  0
    0.0000    0.0000    0.0000 C   0  0  0  0  0  0  0  0  0  0  0  0
    0.0000    0.0000    0.0000 C   0  0  0  0  0  0  0  0  0  0  0  0
    0.0000    0.0000    0.0000 C   0  0  0  0  0  0  0  0  0  0  0  0
    0.0000    0.0000    0.0000 N   0  0  0  0  0  0  0  0  0  0  0  0
    0.0000    0.0000    0.0000 C   0  0  0  0  0  0  0  0  0  0  0  0
    0.0000    0.0000    0.0000 C   0  0  0  0  0  0  0  0  0  0  0  0
    0.0000    0.0000    0.0000 N   0  0  0  0  0  0  0  0  0  0  0  0
    0.0000    0.0000    0.0000 N   0  0  0  0  0  0  0  0  0  0  0  0
    0.0000    0.0000    0.0000 C   0  0  0  0  0  0  0  0  0  0  0  0
    0.0000    0.0000    0.0000 C   0  0  0  0  0  0  0  0  0  0  0  0
    0.0000    0.0000    0.0000 C   0  0  0  0  0  0  0  0  0  0  0  0
    0.0000    0.0000    0.0000 C   0  0  0  0  0  0  0  0  0  0  0  0
    0.0000    0.0000    0.0000 C   0  0  0  0  0  0  0  0  0  0  0  0
    0.0000    0.0000    0.0000 C   0  0  0  0  0  0  0  0  0  0  0  0
    0.0000    0.0000    0.0000 C   0  0  0  0  0  0  0  0  0  0  0  0
    0.0000    0.0000    0.0000 C   0  0  0  0  0  0  0  0  0  0  0  0
    0.0000    0.0000    0.0000 C   0  0  0  0  0  0  0  0  0  0  0  0
    0.0000    0.0000    0.0000 C   0  0  0  0  0  0  0  0  0  0  0  0
    0.0000    0.0000    0.0000 N   0  0  0  0  0  0  0  0  0  0  0  0
    0.0000    0.0000    0.0000 N   0  0  0  0  0  0  0  0  0  0  0  0
    0.0000    0.0000    0.0000 C   0  0  0  0  0  0  0  0  0  0  0  0
    0.0000    0.0000    0.0000 N   0  0  0  0  0  0  0  0  0  0  0  0
    0.0000    0.0000    0.0000 C   0  0  0  0  0  0  0  0  0  0  0  0
    0.0000    0.0000    0.0000 C   0  0  0  0  0  0  0  0  0  0  0  0
    0.0000    0.0000    0.0000 C   0  0  0  0  0  0  0  0  0  0  0  0
  1  2  1  0
  2  3  1  0
  2  4  1  0
  4  5  1  0
  5  6  1  0
  6  7  1  0
  7  8  1  0
  8  9  1  0
  9 10  1  0
 10 11  1  0
 11 12  1  0
 12 13  1  0
 13 14  2  0
 14 15  1  0
 15 16  2  0
 16 17  1  0
 17 18  2  0
 18 19  1  0
 18 20  1  0
 20 21  2  0
 14 22  1  0
 22 23  2  0
 23 24  1  0
 23 25  1  0
 25 26  2  0
 26 27  1  0
 27 28  2  0
  9 29  1  0
 29 30  1  0
 30  6  1  0
 28 12  1  0
 21 15  1  0
 28 22  1  0
M  END
>  <pIC50>  (763) 
5.14

>  <ChEMBL_ID>  (763) 
CHEMBL3822591

>  <document_journal>  (763) 
J. Med. Chem.

>  <bao_endpoint>  (763) 
BAO_0000190

>  <potential_duplicate>  (763) 
None

>  <uo_units>  (763) 
UO_0000065

>  <canonical_smiles>  (763) 
CN(C)CCC1CCN(CCn2nc(c3ccc(C)cc3)c4c(N)ncnc24)CC1

>  <parent_molecule_chembl_id>  (763) 
CHEMBL3822591

>  <assay_type>  (763) 
B

>  <src_id>  (763) 
1

>  <ligand_efficiency>  (763) 
None

>  <standard_flag>  (763) 
True

>  <molecule_chembl_id>  (763) 
CHEMBL3822591

>  <target_organism>  (763) 
Homo sapiens

>  <standard_units>  (763) 
nM

>  <record_id>  (763) 
2786056

>  <document_chembl_id>  (763) 
CHEMBL3822371

>  <bao_format>  (763) 
None

>  <data_validity_description>  (763) 
None

>  <activity_id>  (763) 
16639967

>  <standard_type>  (763) 
IC50

>  <target_chembl_id>  (763) 
CHEMBL1862

>  <data_validity_comment>  (763) 
None

>  <published_value>  (763) 
7249

>  <document_year>  (763) 
2016

>  <target_pref_name>  (763) 
Tyrosine-protein kinase ABL

>  <assay_chembl_id>  (763) 
CHEMBL3826738

>  <standard_relation>  (763) 
=

>  <assay_description>  (763) 
Inhibition of human ABL using EAIYAAPFAKKK as substrate in presence of [gamma-33P]ATP

>  <published_relation>  (763) 
=

>  <standard_value>  (763) 
7249

>  <qudt_units>  (763) 
http://www.openphacts.org/units/Nanomolar

>  <target_tax_id>  (763) 
9606

>  <bao_label>  (763) 
None

>  <published_units>  (763) 
nM

>  <pchembl_value>  (763) 
5.14

>  <published_type>  (763) 
IC50

>  <activity_comment>  (763) 
None

$$$$

     RDKit          

 21 23  0  0  0  0  0  0  0  0999 V2000
    0.0000    0.0000    0.0000 C   0  0  0  0  0  0  0  0  0  0  0  0
    0.0000    0.0000    0.0000 C   0  0  0  0  0  0  0  0  0  0  0  0
    0.0000    0.0000    0.0000 C   0  0  0  0  0  0  0  0  0  0  0  0
    0.0000    0.0000    0.0000 C   0  0  0  0  0  0  0  0  0  0  0  0
    0.0000    0.0000    0.0000 C   0  0  0  0  0  0  0  0  0  0  0  0
    0.0000    0.0000    0.0000 C   0  0  0  0  0  0  0  0  0  0  0  0
    0.0000    0.0000    0.0000 C   0  0  0  0  0  0  0  0  0  0  0  0
    0.0000    0.0000    0.0000 C   0  0  0  0  0  0  0  0  0  0  0  0
    0.0000    0.0000    0.0000 N   0  0  0  0  0  0  0  0  0  0  0  0
    0.0000    0.0000    0.0000 N   0  0  0  0  0  0  0  0  0  0  0  0
    0.0000    0.0000    0.0000 C   0  0  0  0  0  0  0  0  0  0  0  0
    0.0000    0.0000    0.0000 N   0  0  0  0  0  0  0  0  0  0  0  0
    0.0000    0.0000    0.0000 C   0  0  0  0  0  0  0  0  0  0  0  0
    0.0000    0.0000    0.0000 N   0  0  0  0  0  0  0  0  0  0  0  0
    0.0000    0.0000    0.0000 C   0  0  0  0  0  0  0  0  0  0  0  0
    0.0000    0.0000    0.0000 N   0  0  0  0  0  0  0  0  0  0  0  0
    0.0000    0.0000    0.0000 C   0  0  0  0  0  0  0  0  0  0  0  0
    0.0000    0.0000    0.0000 C   0  0  0  0  0  0  0  0  0  0  0  0
    0.0000    0.0000    0.0000 C   0  0  0  0  0  0  0  0  0  0  0  0
    0.0000    0.0000    0.0000 C   0  0  0  0  0  0  0  0  0  0  0  0
    0.0000    0.0000    0.0000 C   0  0  0  0  0  0  0  0  0  0  0  0
  1  2  1  0
  2  3  2  0
  3  4  1  0
  4  5  2  0
  5  6  1  0
  6  7  2  0
  5  8  1  0
  8  9  2  0
  9 10  1  0
 10 11  1  0
 11 12  2  0
 12 13  1  0
 13 14  2  0
 14 15  1  0
 15 16  1  0
 15 17  2  0
 10 18  1  0
 18 19  1  0
 18 20  1  0
 18 21  1  0
  7  2  1  0
 17  8  1  0
 17 11  1  0
M  END
>  <pIC50>  (764) 
6.83

>  <ChEMBL_ID>  (764) 
CHEMBL306380

>  <document_journal>  (764) 
J. Med. Chem.

>  <bao_endpoint>  (764) 
BAO_0000190

>  <potential_duplicate>  (764) 
None

>  <uo_units>  (764) 
UO_0000065

>  <canonical_smiles>  (764) 
Cc1ccc(cc1)c2nn(c3ncnc(N)c23)C(C)(C)C

>  <parent_molecule_chembl_id>  (764) 
CHEMBL306380

>  <assay_type>  (764) 
B

>  <src_id>  (764) 
1

>  <ligand_efficiency>  (764) 
None

>  <standard_flag>  (764) 
True

>  <molecule_chembl_id>  (764) 
CHEMBL306380

>  <target_organism>  (764) 
Homo sapiens

>  <standard_units>  (764) 
nM

>  <record_id>  (764) 
2786064

>  <document_chembl_id>  (764) 
CHEMBL3822371

>  <bao_format>  (764) 
None

>  <data_validity_description>  (764) 
None

>  <activity_id>  (764) 
16639969

>  <standard_type>  (764) 
IC50

>  <target_chembl_id>  (764) 
CHEMBL1862

>  <data_validity_comment>  (764) 
None

>  <published_value>  (764) 
147

>  <document_year>  (764) 
2016

>  <target_pref_name>  (764) 
Tyrosine-protein kinase ABL

>  <assay_chembl_id>  (764) 
CHEMBL3826738

>  <standard_relation>  (764) 
=

>  <assay_description>  (764) 
Inhibition of human ABL using EAIYAAPFAKKK as substrate in presence of [gamma-33P]ATP

>  <published_relation>  (764) 
=

>  <standard_value>  (764) 
147

>  <qudt_units>  (764) 
http://www.openphacts.org/units/Nanomolar

>  <target_tax_id>  (764) 
9606

>  <bao_label>  (764) 
None

>  <published_units>  (764) 
nM

>  <pchembl_value>  (764) 
6.83

>  <published_type>  (764) 
IC50

>  <activity_comment>  (764) 
None

$$$$

     RDKit          

 31 35  0  0  0  0  0  0  0  0999 V2000
    0.0000    0.0000    0.0000 C   0  0  0  0  0  0  0  0  0  0  0  0
    0.0000    0.0000    0.0000 N   0  0  0  0  0  0  0  0  0  0  0  0
    0.0000    0.0000    0.0000 C   0  0  0  0  0  0  0  0  0  0  0  0
    0.0000    0.0000    0.0000 C   0  0  0  0  0  0  0  0  0  0  0  0
    0.0000    0.0000    0.0000 C   0  0  0  0  0  0  0  0  0  0  0  0
    0.0000    0.0000    0.0000 C   0  0  0  0  0  0  0  0  0  0  0  0
    0.0000    0.0000    0.0000 C   0  0  0  0  0  0  0  0  0  0  0  0
    0.0000    0.0000    0.0000 N   0  0  0  0  0  0  0  0  0  0  0  0
    0.0000    0.0000    0.0000 C   0  0  0  0  0  0  0  0  0  0  0  0
    0.0000    0.0000    0.0000 C   0  0  0  0  0  0  0  0  0  0  0  0
    0.0000    0.0000    0.0000 N   0  0  0  0  0  0  0  0  0  0  0  0
    0.0000    0.0000    0.0000 N   0  0  0  0  0  0  0  0  0  0  0  0
    0.0000    0.0000    0.0000 C   0  0  0  0  0  0  0  0  0  0  0  0
    0.0000    0.0000    0.0000 C   0  0  0  0  0  0  0  0  0  0  0  0
    0.0000    0.0000    0.0000 C   0  0  0  0  0  0  0  0  0  0  0  0
    0.0000    0.0000    0.0000 N   0  0  0  0  0  0  0  0  0  0  0  0
    0.0000    0.0000    0.0000 C   0  0  0  0  0  0  0  0  0  0  0  0
    0.0000    0.0000    0.0000 N   0  0  0  0  0  0  0  0  0  0  0  0
    0.0000    0.0000    0.0000 C   0  0  0  0  0  0  0  0  0  0  0  0
    0.0000    0.0000    0.0000 C   0  0  0  0  0  0  0  0  0  0  0  0
    0.0000    0.0000    0.0000 C   0  0  0  0  0  0  0  0  0  0  0  0
    0.0000    0.0000    0.0000 C   0  0  0  0  0  0  0  0  0  0  0  0
    0.0000    0.0000    0.0000 C   0  0  0  0  0  0  0  0  0  0  0  0
    0.0000    0.0000    0.0000 C   0  0  0  0  0  0  0  0  0  0  0  0
    0.0000    0.0000    0.0000 N   0  0  0  0  0  0  0  0  0  0  0  0
    0.0000    0.0000    0.0000 N   0  0  0  0  0  0  0  0  0  0  0  0
    0.0000    0.0000    0.0000 C   0  0  0  0  0  0  0  0  0  0  0  0
    0.0000    0.0000    0.0000 N   0  0  0  0  0  0  0  0  0  0  0  0
    0.0000    0.0000    0.0000 C   0  0  0  0  0  0  0  0  0  0  0  0
    0.0000    0.0000    0.0000 C   0  0  0  0  0  0  0  0  0  0  0  0
    0.0000    0.0000    0.0000 C   0  0  0  0  0  0  0  0  0  0  0  0
  1  2  1  0
  2  3  1  0
  2  4  1  0
  4  5  1  0
  5  6  1  0
  6  7  1  0
  7  8  1  0
  8  9  1  0
  9 10  1  0
 10 11  1  0
 11 12  1  0
 12 13  2  0
 13 14  1  0
 14 15  2  0
 15 16  1  0
 16 17  2  0
 17 18  1  0
 18 19  1  0
 19 20  2  0
 20 21  1  0
 21 22  2  0
 13 23  1  0
 23 24  2  0
 24 25  1  0
 24 26  1  0
 26 27  2  0
 27 28  1  0
 28 29  2  0
  8 30  1  0
 30 31  1  0
 31  5  1  0
 29 11  1  0
 22 14  1  0
 21 17  1  0
 29 23  1  0
M  END
>  <pIC50>  (765) 
6.94

>  <ChEMBL_ID>  (765) 
CHEMBL3823861

>  <document_journal>  (765) 
J. Med. Chem.

>  <bao_endpoint>  (765) 
BAO_0000190

>  <potential_duplicate>  (765) 
None

>  <uo_units>  (765) 
UO_0000065

>  <canonical_smiles>  (765) 
CN(C)CC1CCN(CCn2nc(c3cnc4[nH]ccc4c3)c5c(N)ncnc25)CC1

>  <parent_molecule_chembl_id>  (765) 
CHEMBL3823861

>  <assay_type>  (765) 
B

>  <src_id>  (765) 
1

>  <ligand_efficiency>  (765) 
None

>  <standard_flag>  (765) 
True

>  <molecule_chembl_id>  (765) 
CHEMBL3823861

>  <target_organism>  (765) 
Homo sapiens

>  <standard_units>  (765) 
nM

>  <record_id>  (765) 
2786068

>  <document_chembl_id>  (765) 
CHEMBL3822371

>  <bao_format>  (765) 
None

>  <data_validity_description>  (765) 
None

>  <activity_id>  (765) 
16639970

>  <standard_type>  (765) 
IC50

>  <target_chembl_id>  (765) 
CHEMBL1862

>  <data_validity_comment>  (765) 
None

>  <published_value>  (765) 
116

>  <document_year>  (765) 
2016

>  <target_pref_name>  (765) 
Tyrosine-protein kinase ABL

>  <assay_chembl_id>  (765) 
CHEMBL3826738

>  <standard_relation>  (765) 
=

>  <assay_description>  (765) 
Inhibition of human ABL using EAIYAAPFAKKK as substrate in presence of [gamma-33P]ATP

>  <published_relation>  (765) 
=

>  <standard_value>  (765) 
116

>  <qudt_units>  (765) 
http://www.openphacts.org/units/Nanomolar

>  <target_tax_id>  (765) 
9606

>  <bao_label>  (765) 
None

>  <published_units>  (765) 
nM

>  <pchembl_value>  (765) 
6.94

>  <published_type>  (765) 
IC50

>  <activity_comment>  (765) 
None

$$$$

     RDKit          

 37 40  0  0  0  0  0  0  0  0999 V2000
    0.0000    0.0000    0.0000 C   0  0  0  0  0  0  0  0  0  0  0  0
    0.0000    0.0000    0.0000 O   0  0  0  0  0  0  0  0  0  0  0  0
    0.0000    0.0000    0.0000 C   0  0  0  0  0  0  0  0  0  0  0  0
    0.0000    0.0000    0.0000 C   0  0  0  0  0  0  0  0  0  0  0  0
    0.0000    0.0000    0.0000 C   0  0  0  0  0  0  0  0  0  0  0  0
    0.0000    0.0000    0.0000 C   0  0  0  0  0  0  0  0  0  0  0  0
    0.0000    0.0000    0.0000 C   0  0  0  0  0  0  0  0  0  0  0  0
    0.0000    0.0000    0.0000 C   0  0  0  0  0  0  0  0  0  0  0  0
    0.0000    0.0000    0.0000 N   0  0  0  0  0  0  0  0  0  0  0  0
    0.0000    0.0000    0.0000 C   0  0  0  0  0  0  0  0  0  0  0  0
    0.0000    0.0000    0.0000 O   0  0  0  0  0  0  0  0  0  0  0  0
    0.0000    0.0000    0.0000 O   0  0  0  0  0  0  0  0  0  0  0  0
    0.0000    0.0000    0.0000 C   0  0  0  0  0  0  0  0  0  0  0  0
    0.0000    0.0000    0.0000 C   0  0  0  0  0  0  0  0  0  0  0  0
    0.0000    0.0000    0.0000 C   0  0  0  0  0  0  0  0  0  0  0  0
    0.0000    0.0000    0.0000 C   0  0  0  0  0  0  0  0  0  0  0  0
    0.0000    0.0000    0.0000 C   0  0  0  0  0  0  0  0  0  0  0  0
    0.0000    0.0000    0.0000 N   0  0  0  0  0  0  0  0  0  0  0  0
    0.0000    0.0000    0.0000 N   0  0  0  0  0  0  0  0  0  0  0  0
    0.0000    0.0000    0.0000 C   0  0  0  0  0  0  0  0  0  0  0  0
    0.0000    0.0000    0.0000 C   0  0  0  0  0  0  0  0  0  0  0  0
    0.0000    0.0000    0.0000 N   0  0  0  0  0  0  0  0  0  0  0  0
    0.0000    0.0000    0.0000 C   0  0  0  0  0  0  0  0  0  0  0  0
    0.0000    0.0000    0.0000 C   0  0  0  0  0  0  0  0  0  0  0  0
    0.0000    0.0000    0.0000 C   0  0  0  0  0  0  0  0  0  0  0  0
    0.0000    0.0000    0.0000 C   0  0  0  0  0  0  0  0  0  0  0  0
    0.0000    0.0000    0.0000 C   0  0  0  0  0  0  0  0  0  0  0  0
    0.0000    0.0000    0.0000 N   0  0  0  0  0  0  0  0  0  0  0  0
    0.0000    0.0000    0.0000 C   0  0  0  0  0  0  0  0  0  0  0  0
    0.0000    0.0000    0.0000 C   0  0  0  0  0  0  0  0  0  0  0  0
    0.0000    0.0000    0.0000 C   0  0  0  0  0  0  0  0  0  0  0  0
    0.0000    0.0000    0.0000 N   0  0  0  0  0  0  0  0  0  0  0  0
    0.0000    0.0000    0.0000 C   0  0  0  0  0  0  0  0  0  0  0  0
    0.0000    0.0000    0.0000 N   0  0  0  0  0  0  0  0  0  0  0  0
    0.0000    0.0000    0.0000 C   0  0  0  0  0  0  0  0  0  0  0  0
    0.0000    0.0000    0.0000 N   0  0  0  0  0  0  0  0  0  0  0  0
    0.0000    0.0000    0.0000 C   0  0  0  0  0  0  0  0  0  0  0  0
  1  2  1  0
  2  3  1  0
  3  4  2  0
  4  5  1  0
  5  6  2  0
  6  7  1  0
  7  8  2  0
  8  9  1  0
  9 10  1  0
 10 11  2  0
 10 12  1  0
 12 13  1  0
 13 14  1  0
 13 15  1  0
 13 16  1  0
  5 17  1  0
 17 18  2  0
 18 19  1  0
 19 20  1  0
 20 21  1  0
 21 22  1  0
 22 23  1  0
 23 24  1  0
 24 25  1  0
 25 26  1  0
 26 27  1  0
 25 28  1  0
 28 29  1  0
 28 30  1  0
 19 31  1  0
 31 32  2  0
 32 33  1  0
 33 34  2  0
 34 35  1  0
 35 36  1  0
 35 37  2  0
  8  3  1  0
 37 17  1  0
 27 22  1  0
 37 31  1  0
M  END
>  <pIC50>  (766) 
6.32

>  <ChEMBL_ID>  (766) 
CHEMBL3824089

>  <document_journal>  (766) 
J. Med. Chem.

>  <bao_endpoint>  (766) 
BAO_0000190

>  <potential_duplicate>  (766) 
None

>  <uo_units>  (766) 
UO_0000065

>  <canonical_smiles>  (766) 
COc1cc(ccc1NC(=O)OC(C)(C)C)c2nn(CCN3CCC(CC3)N(C)C)c4ncnc(N)c24

>  <parent_molecule_chembl_id>  (766) 
CHEMBL3824089

>  <assay_type>  (766) 
B

>  <src_id>  (766) 
1

>  <ligand_efficiency>  (766) 
None

>  <standard_flag>  (766) 
True

>  <molecule_chembl_id>  (766) 
CHEMBL3824089

>  <target_organism>  (766) 
Homo sapiens

>  <standard_units>  (766) 
nM

>  <record_id>  (766) 
2786141

>  <document_chembl_id>  (766) 
CHEMBL3822371

>  <bao_format>  (766) 
None

>  <data_validity_description>  (766) 
None

>  <activity_id>  (766) 
16639971

>  <standard_type>  (766) 
IC50

>  <target_chembl_id>  (766) 
CHEMBL1862

>  <data_validity_comment>  (766) 
None

>  <published_value>  (766) 
479

>  <document_year>  (766) 
2016

>  <target_pref_name>  (766) 
Tyrosine-protein kinase ABL

>  <assay_chembl_id>  (766) 
CHEMBL3826738

>  <standard_relation>  (766) 
=

>  <assay_description>  (766) 
Inhibition of human ABL using EAIYAAPFAKKK as substrate in presence of [gamma-33P]ATP

>  <published_relation>  (766) 
=

>  <standard_value>  (766) 
479

>  <qudt_units>  (766) 
http://www.openphacts.org/units/Nanomolar

>  <target_tax_id>  (766) 
9606

>  <bao_label>  (766) 
None

>  <published_units>  (766) 
nM

>  <pchembl_value>  (766) 
6.32

>  <published_type>  (766) 
IC50

>  <activity_comment>  (766) 
None

$$$$

     RDKit          

 35 38  0  0  0  0  0  0  0  0999 V2000
    0.0000    0.0000    0.0000 C   0  0  0  0  0  0  0  0  0  0  0  0
    0.0000    0.0000    0.0000 O   0  0  0  0  0  0  0  0  0  0  0  0
    0.0000    0.0000    0.0000 C   0  0  0  0  0  0  0  0  0  0  0  0
    0.0000    0.0000    0.0000 C   0  0  0  0  0  0  0  0  0  0  0  0
    0.0000    0.0000    0.0000 C   0  0  0  0  0  0  0  0  0  0  0  0
    0.0000    0.0000    0.0000 C   0  0  0  0  0  0  0  0  0  0  0  0
    0.0000    0.0000    0.0000 C   0  0  0  0  0  0  0  0  0  0  0  0
    0.0000    0.0000    0.0000 C   0  0  0  0  0  0  0  0  0  0  0  0
    0.0000    0.0000    0.0000 N   0  0  0  0  0  0  0  0  0  0  0  0
    0.0000    0.0000    0.0000 C   0  0  0  0  0  0  0  0  0  0  0  0
    0.0000    0.0000    0.0000 O   0  0  0  0  0  0  0  0  0  0  0  0
    0.0000    0.0000    0.0000 O   0  0  0  0  0  0  0  0  0  0  0  0
    0.0000    0.0000    0.0000 C   0  0  0  0  0  0  0  0  0  0  0  0
    0.0000    0.0000    0.0000 C   0  0  0  0  0  0  0  0  0  0  0  0
    0.0000    0.0000    0.0000 C   0  0  0  0  0  0  0  0  0  0  0  0
    0.0000    0.0000    0.0000 C   0  0  0  0  0  0  0  0  0  0  0  0
    0.0000    0.0000    0.0000 C   0  0  0  0  0  0  0  0  0  0  0  0
    0.0000    0.0000    0.0000 N   0  0  0  0  0  0  0  0  0  0  0  0
    0.0000    0.0000    0.0000 N   0  0  0  0  0  0  0  0  0  0  0  0
    0.0000    0.0000    0.0000 C   0  0  0  0  0  0  0  0  0  0  0  0
    0.0000    0.0000    0.0000 C   0  0  0  0  0  0  0  0  0  0  0  0
    0.0000    0.0000    0.0000 N   0  0  0  0  0  0  0  0  0  0  0  0
    0.0000    0.0000    0.0000 C   0  0  0  0  0  0  0  0  0  0  0  0
    0.0000    0.0000    0.0000 C   0  0  0  0  0  0  0  0  0  0  0  0
    0.0000    0.0000    0.0000 N   0  0  0  0  0  0  0  0  0  0  0  0
    0.0000    0.0000    0.0000 C   0  0  0  0  0  0  0  0  0  0  0  0
    0.0000    0.0000    0.0000 C   0  0  0  0  0  0  0  0  0  0  0  0
    0.0000    0.0000    0.0000 C   0  0  0  0  0  0  0  0  0  0  0  0
    0.0000    0.0000    0.0000 C   0  0  0  0  0  0  0  0  0  0  0  0
    0.0000    0.0000    0.0000 N   0  0  0  0  0  0  0  0  0  0  0  0
    0.0000    0.0000    0.0000 C   0  0  0  0  0  0  0  0  0  0  0  0
    0.0000    0.0000    0.0000 N   0  0  0  0  0  0  0  0  0  0  0  0
    0.0000    0.0000    0.0000 C   0  0  0  0  0  0  0  0  0  0  0  0
    0.0000    0.0000    0.0000 N   0  0  0  0  0  0  0  0  0  0  0  0
    0.0000    0.0000    0.0000 C   0  0  0  0  0  0  0  0  0  0  0  0
  1  2  1  0
  2  3  1  0
  3  4  2  0
  4  5  1  0
  5  6  2  0
  6  7  1  0
  7  8  2  0
  8  9  1  0
  9 10  1  0
 10 11  2  0
 10 12  1  0
 12 13  1  0
 13 14  1  0
 13 15  1  0
 13 16  1  0
  5 17  1  0
 17 18  2  0
 18 19  1  0
 19 20  1  0
 20 21  1  0
 21 22  1  0
 22 23  1  0
 23 24  1  0
 24 25  1  0
 25 26  1  0
 25 27  1  0
 27 28  1  0
 19 29  1  0
 29 30  2  0
 30 31  1  0
 31 32  2  0
 32 33  1  0
 33 34  1  0
 33 35  2  0
  8  3  1  0
 35 17  1  0
 28 22  1  0
 35 29  1  0
M  END
>  <pIC50>  (767) 
5.33

>  <ChEMBL_ID>  (767) 
CHEMBL3823451

>  <document_journal>  (767) 
J. Med. Chem.

>  <bao_endpoint>  (767) 
BAO_0000190

>  <potential_duplicate>  (767) 
None

>  <uo_units>  (767) 
UO_0000065

>  <canonical_smiles>  (767) 
COc1cc(ccc1NC(=O)OC(C)(C)C)c2nn(CCN3CCN(C)CC3)c4ncnc(N)c24

>  <parent_molecule_chembl_id>  (767) 
CHEMBL3823451

>  <assay_type>  (767) 
B

>  <src_id>  (767) 
1

>  <ligand_efficiency>  (767) 
None

>  <standard_flag>  (767) 
True

>  <molecule_chembl_id>  (767) 
CHEMBL3823451

>  <target_organism>  (767) 
Homo sapiens

>  <standard_units>  (767) 
nM

>  <record_id>  (767) 
2786142

>  <document_chembl_id>  (767) 
CHEMBL3822371

>  <bao_format>  (767) 
None

>  <data_validity_description>  (767) 
None

>  <activity_id>  (767) 
16639972

>  <standard_type>  (767) 
IC50

>  <target_chembl_id>  (767) 
CHEMBL1862

>  <data_validity_comment>  (767) 
None

>  <published_value>  (767) 
4690

>  <document_year>  (767) 
2016

>  <target_pref_name>  (767) 
Tyrosine-protein kinase ABL

>  <assay_chembl_id>  (767) 
CHEMBL3826738

>  <standard_relation>  (767) 
=

>  <assay_description>  (767) 
Inhibition of human ABL using EAIYAAPFAKKK as substrate in presence of [gamma-33P]ATP

>  <published_relation>  (767) 
=

>  <standard_value>  (767) 
4690

>  <qudt_units>  (767) 
http://www.openphacts.org/units/Nanomolar

>  <target_tax_id>  (767) 
9606

>  <bao_label>  (767) 
None

>  <published_units>  (767) 
nM

>  <pchembl_value>  (767) 
5.33

>  <published_type>  (767) 
IC50

>  <activity_comment>  (767) 
None

$$$$

     RDKit          

 39 43  0  0  0  0  0  0  0  0999 V2000
    0.0000    0.0000    0.0000 C   0  0  0  0  0  0  0  0  0  0  0  0
    0.0000    0.0000    0.0000 O   0  0  0  0  0  0  0  0  0  0  0  0
    0.0000    0.0000    0.0000 C   0  0  0  0  0  0  0  0  0  0  0  0
    0.0000    0.0000    0.0000 C   0  0  0  0  0  0  0  0  0  0  0  0
    0.0000    0.0000    0.0000 C   0  0  0  0  0  0  0  0  0  0  0  0
    0.0000    0.0000    0.0000 C   0  0  0  0  0  0  0  0  0  0  0  0
    0.0000    0.0000    0.0000 C   0  0  0  0  0  0  0  0  0  0  0  0
    0.0000    0.0000    0.0000 C   0  0  0  0  0  0  0  0  0  0  0  0
    0.0000    0.0000    0.0000 N   0  0  0  0  0  0  0  0  0  0  0  0
    0.0000    0.0000    0.0000 C   0  0  0  0  0  0  0  0  0  0  0  0
    0.0000    0.0000    0.0000 O   0  0  0  0  0  0  0  0  0  0  0  0
    0.0000    0.0000    0.0000 O   0  0  0  0  0  0  0  0  0  0  0  0
    0.0000    0.0000    0.0000 C   0  0  0  0  0  0  0  0  0  0  0  0
    0.0000    0.0000    0.0000 C   0  0  0  0  0  0  0  0  0  0  0  0
    0.0000    0.0000    0.0000 C   0  0  0  0  0  0  0  0  0  0  0  0
    0.0000    0.0000    0.0000 C   0  0  0  0  0  0  0  0  0  0  0  0
    0.0000    0.0000    0.0000 C   0  0  0  0  0  0  0  0  0  0  0  0
    0.0000    0.0000    0.0000 N   0  0  0  0  0  0  0  0  0  0  0  0
    0.0000    0.0000    0.0000 N   0  0  0  0  0  0  0  0  0  0  0  0
    0.0000    0.0000    0.0000 C   0  0  0  0  0  0  0  0  0  0  0  0
    0.0000    0.0000    0.0000 C   0  0  0  0  0  0  0  0  0  0  0  0
    0.0000    0.0000    0.0000 N   0  0  0  0  0  0  0  0  0  0  0  0
    0.0000    0.0000    0.0000 C   0  0  0  0  0  0  0  0  0  0  0  0
    0.0000    0.0000    0.0000 C   0  0  0  0  0  0  0  0  0  0  0  0
    0.0000    0.0000    0.0000 C   0  0  0  0  0  0  0  0  0  0  0  0
    0.0000    0.0000    0.0000 C   0  0  0  0  0  0  0  0  0  0  0  0
    0.0000    0.0000    0.0000 C   0  0  0  0  0  0  0  0  0  0  0  0
    0.0000    0.0000    0.0000 N   0  0  0  0  0  0  0  0  0  0  0  0
    0.0000    0.0000    0.0000 C   0  0  0  0  0  0  0  0  0  0  0  0
    0.0000    0.0000    0.0000 C   0  0  0  0  0  0  0  0  0  0  0  0
    0.0000    0.0000    0.0000 C   0  0  0  0  0  0  0  0  0  0  0  0
    0.0000    0.0000    0.0000 C   0  0  0  0  0  0  0  0  0  0  0  0
    0.0000    0.0000    0.0000 C   0  0  0  0  0  0  0  0  0  0  0  0
    0.0000    0.0000    0.0000 N   0  0  0  0  0  0  0  0  0  0  0  0
    0.0000    0.0000    0.0000 C   0  0  0  0  0  0  0  0  0  0  0  0
    0.0000    0.0000    0.0000 N   0  0  0  0  0  0  0  0  0  0  0  0
    0.0000    0.0000    0.0000 C   0  0  0  0  0  0  0  0  0  0  0  0
    0.0000    0.0000    0.0000 N   0  0  0  0  0  0  0  0  0  0  0  0
    0.0000    0.0000    0.0000 C   0  0  0  0  0  0  0  0  0  0  0  0
  1  2  1  0
  2  3  1  0
  3  4  2  0
  4  5  1  0
  5  6  2  0
  6  7  1  0
  7  8  2  0
  8  9  1  0
  9 10  1  0
 10 11  2  0
 10 12  1  0
 12 13  1  0
 13 14  1  0
 13 15  1  0
 13 16  1  0
  5 17  1  0
 17 18  2  0
 18 19  1  0
 19 20  1  0
 20 21  1  0
 21 22  1  0
 22 23  1  0
 23 24  1  0
 24 25  1  0
 25 26  1  0
 26 27  1  0
 25 28  1  0
 28 29  1  0
 29 30  1  0
 30 31  1  0
 31 32  1  0
 19 33  1  0
 33 34  2  0
 34 35  1  0
 35 36  2  0
 36 37  1  0
 37 38  1  0
 37 39  2  0
  8  3  1  0
 39 17  1  0
 27 22  1  0
 32 28  1  0
 39 33  1  0
M  END
>  <pIC50>  (768) 
6.39

>  <ChEMBL_ID>  (768) 
CHEMBL3824233

>  <document_journal>  (768) 
J. Med. Chem.

>  <bao_endpoint>  (768) 
BAO_0000190

>  <potential_duplicate>  (768) 
None

>  <uo_units>  (768) 
UO_0000065

>  <canonical_smiles>  (768) 
COc1cc(ccc1NC(=O)OC(C)(C)C)c2nn(CCN3CCC(CC3)N4CCCC4)c5ncnc(N)c25

>  <parent_molecule_chembl_id>  (768) 
CHEMBL3824233

>  <assay_type>  (768) 
B

>  <src_id>  (768) 
1

>  <ligand_efficiency>  (768) 
None

>  <standard_flag>  (768) 
True

>  <molecule_chembl_id>  (768) 
CHEMBL3824233

>  <target_organism>  (768) 
Homo sapiens

>  <standard_units>  (768) 
nM

>  <record_id>  (768) 
2786145

>  <document_chembl_id>  (768) 
CHEMBL3822371

>  <bao_format>  (768) 
None

>  <data_validity_description>  (768) 
None

>  <activity_id>  (768) 
16639973

>  <standard_type>  (768) 
IC50

>  <target_chembl_id>  (768) 
CHEMBL1862

>  <data_validity_comment>  (768) 
None

>  <published_value>  (768) 
407

>  <document_year>  (768) 
2016

>  <target_pref_name>  (768) 
Tyrosine-protein kinase ABL

>  <assay_chembl_id>  (768) 
CHEMBL3826738

>  <standard_relation>  (768) 
=

>  <assay_description>  (768) 
Inhibition of human ABL using EAIYAAPFAKKK as substrate in presence of [gamma-33P]ATP

>  <published_relation>  (768) 
=

>  <standard_value>  (768) 
407

>  <qudt_units>  (768) 
http://www.openphacts.org/units/Nanomolar

>  <target_tax_id>  (768) 
9606

>  <bao_label>  (768) 
None

>  <published_units>  (768) 
nM

>  <pchembl_value>  (768) 
6.39

>  <published_type>  (768) 
IC50

>  <activity_comment>  (768) 
None

$$$$

     RDKit          

 40 44  0  0  0  0  0  0  0  0999 V2000
    0.0000    0.0000    0.0000 C   0  0  0  0  0  0  0  0  0  0  0  0
    0.0000    0.0000    0.0000 O   0  0  0  0  0  0  0  0  0  0  0  0
    0.0000    0.0000    0.0000 C   0  0  0  0  0  0  0  0  0  0  0  0
    0.0000    0.0000    0.0000 C   0  0  0  0  0  0  0  0  0  0  0  0
    0.0000    0.0000    0.0000 C   0  0  0  0  0  0  0  0  0  0  0  0
    0.0000    0.0000    0.0000 C   0  0  0  0  0  0  0  0  0  0  0  0
    0.0000    0.0000    0.0000 C   0  0  0  0  0  0  0  0  0  0  0  0
    0.0000    0.0000    0.0000 C   0  0  0  0  0  0  0  0  0  0  0  0
    0.0000    0.0000    0.0000 N   0  0  0  0  0  0  0  0  0  0  0  0
    0.0000    0.0000    0.0000 C   0  0  0  0  0  0  0  0  0  0  0  0
    0.0000    0.0000    0.0000 O   0  0  0  0  0  0  0  0  0  0  0  0
    0.0000    0.0000    0.0000 O   0  0  0  0  0  0  0  0  0  0  0  0
    0.0000    0.0000    0.0000 C   0  0  0  0  0  0  0  0  0  0  0  0
    0.0000    0.0000    0.0000 C   0  0  0  0  0  0  0  0  0  0  0  0
    0.0000    0.0000    0.0000 C   0  0  0  0  0  0  0  0  0  0  0  0
    0.0000    0.0000    0.0000 C   0  0  0  0  0  0  0  0  0  0  0  0
    0.0000    0.0000    0.0000 C   0  0  0  0  0  0  0  0  0  0  0  0
    0.0000    0.0000    0.0000 N   0  0  0  0  0  0  0  0  0  0  0  0
    0.0000    0.0000    0.0000 N   0  0  0  0  0  0  0  0  0  0  0  0
    0.0000    0.0000    0.0000 C   0  0  0  0  0  0  0  0  0  0  0  0
    0.0000    0.0000    0.0000 C   0  0  0  0  0  0  0  0  0  0  0  0
    0.0000    0.0000    0.0000 N   0  0  0  0  0  0  0  0  0  0  0  0
    0.0000    0.0000    0.0000 C   0  0  0  0  0  0  0  0  0  0  0  0
    0.0000    0.0000    0.0000 C   0  0  0  0  0  0  0  0  0  0  0  0
    0.0000    0.0000    0.0000 C   0  0  0  0  0  0  0  0  0  0  0  0
    0.0000    0.0000    0.0000 C   0  0  0  0  0  0  0  0  0  0  0  0
    0.0000    0.0000    0.0000 C   0  0  0  0  0  0  0  0  0  0  0  0
    0.0000    0.0000    0.0000 N   0  0  0  0  0  0  0  0  0  0  0  0
    0.0000    0.0000    0.0000 C   0  0  0  0  0  0  0  0  0  0  0  0
    0.0000    0.0000    0.0000 C   0  0  0  0  0  0  0  0  0  0  0  0
    0.0000    0.0000    0.0000 C   0  0  0  0  0  0  0  0  0  0  0  0
    0.0000    0.0000    0.0000 C   0  0  0  0  0  0  0  0  0  0  0  0
    0.0000    0.0000    0.0000 C   0  0  0  0  0  0  0  0  0  0  0  0
    0.0000    0.0000    0.0000 C   0  0  0  0  0  0  0  0  0  0  0  0
    0.0000    0.0000    0.0000 N   0  0  0  0  0  0  0  0  0  0  0  0
    0.0000    0.0000    0.0000 C   0  0  0  0  0  0  0  0  0  0  0  0
    0.0000    0.0000    0.0000 N   0  0  0  0  0  0  0  0  0  0  0  0
    0.0000    0.0000    0.0000 C   0  0  0  0  0  0  0  0  0  0  0  0
    0.0000    0.0000    0.0000 N   0  0  0  0  0  0  0  0  0  0  0  0
    0.0000    0.0000    0.0000 C   0  0  0  0  0  0  0  0  0  0  0  0
  1  2  1  0
  2  3  1  0
  3  4  2  0
  4  5  1  0
  5  6  2  0
  6  7  1  0
  7  8  2  0
  8  9  1  0
  9 10  1  0
 10 11  2  0
 10 12  1  0
 12 13  1  0
 13 14  1  0
 13 15  1  0
 13 16  1  0
  5 17  1  0
 17 18  2  0
 18 19  1  0
 19 20  1  0
 20 21  1  0
 21 22  1  0
 22 23  1  0
 23 24  1  0
 24 25  1  0
 25 26  1  0
 26 27  1  0
 25 28  1  0
 28 29  1  0
 29 30  1  0
 30 31  1  0
 31 32  1  0
 32 33  1  0
 19 34  1  0
 34 35  2  0
 35 36  1  0
 36 37  2  0
 37 38  1  0
 38 39  1  0
 38 40  2  0
  8  3  1  0
 40 17  1  0
 27 22  1  0
 33 28  1  0
 40 34  1  0
M  END
>  <pIC50>  (769) 
6.09

>  <ChEMBL_ID>  (769) 
CHEMBL3823104

>  <document_journal>  (769) 
J. Med. Chem.

>  <bao_endpoint>  (769) 
BAO_0000190

>  <potential_duplicate>  (769) 
None

>  <uo_units>  (769) 
UO_0000065

>  <canonical_smiles>  (769) 
COc1cc(ccc1NC(=O)OC(C)(C)C)c2nn(CCN3CCC(CC3)N4CCCCC4)c5ncnc(N)c25

>  <parent_molecule_chembl_id>  (769) 
CHEMBL3823104

>  <assay_type>  (769) 
B

>  <src_id>  (769) 
1

>  <ligand_efficiency>  (769) 
None

>  <standard_flag>  (769) 
True

>  <molecule_chembl_id>  (769) 
CHEMBL3823104

>  <target_organism>  (769) 
Homo sapiens

>  <standard_units>  (769) 
nM

>  <record_id>  (769) 
2786146

>  <document_chembl_id>  (769) 
CHEMBL3822371

>  <bao_format>  (769) 
None

>  <data_validity_description>  (769) 
None

>  <activity_id>  (769) 
16639974

>  <standard_type>  (769) 
IC50

>  <target_chembl_id>  (769) 
CHEMBL1862

>  <data_validity_comment>  (769) 
None

>  <published_value>  (769) 
808

>  <document_year>  (769) 
2016

>  <target_pref_name>  (769) 
Tyrosine-protein kinase ABL

>  <assay_chembl_id>  (769) 
CHEMBL3826738

>  <standard_relation>  (769) 
=

>  <assay_description>  (769) 
Inhibition of human ABL using EAIYAAPFAKKK as substrate in presence of [gamma-33P]ATP

>  <published_relation>  (769) 
=

>  <standard_value>  (769) 
808

>  <qudt_units>  (769) 
http://www.openphacts.org/units/Nanomolar

>  <target_tax_id>  (769) 
9606

>  <bao_label>  (769) 
None

>  <published_units>  (769) 
nM

>  <pchembl_value>  (769) 
6.09

>  <published_type>  (769) 
IC50

>  <activity_comment>  (769) 
None

$$$$

     RDKit          

 37 40  0  0  0  0  0  0  0  0999 V2000
    0.0000    0.0000    0.0000 C   0  0  0  0  0  0  0  0  0  0  0  0
    0.0000    0.0000    0.0000 O   0  0  0  0  0  0  0  0  0  0  0  0
    0.0000    0.0000    0.0000 C   0  0  0  0  0  0  0  0  0  0  0  0
    0.0000    0.0000    0.0000 C   0  0  0  0  0  0  0  0  0  0  0  0
    0.0000    0.0000    0.0000 C   0  0  0  0  0  0  0  0  0  0  0  0
    0.0000    0.0000    0.0000 C   0  0  0  0  0  0  0  0  0  0  0  0
    0.0000    0.0000    0.0000 C   0  0  0  0  0  0  0  0  0  0  0  0
    0.0000    0.0000    0.0000 C   0  0  0  0  0  0  0  0  0  0  0  0
    0.0000    0.0000    0.0000 N   0  0  0  0  0  0  0  0  0  0  0  0
    0.0000    0.0000    0.0000 C   0  0  0  0  0  0  0  0  0  0  0  0
    0.0000    0.0000    0.0000 O   0  0  0  0  0  0  0  0  0  0  0  0
    0.0000    0.0000    0.0000 N   0  0  0  0  0  0  0  0  0  0  0  0
    0.0000    0.0000    0.0000 C   0  0  0  0  0  0  0  0  0  0  0  0
    0.0000    0.0000    0.0000 C   0  0  0  0  0  0  0  0  0  0  0  0
    0.0000    0.0000    0.0000 C   0  0  0  0  0  0  0  0  0  0  0  0
    0.0000    0.0000    0.0000 C   0  0  0  0  0  0  0  0  0  0  0  0
    0.0000    0.0000    0.0000 C   0  0  0  0  0  0  0  0  0  0  0  0
    0.0000    0.0000    0.0000 N   0  0  0  0  0  0  0  0  0  0  0  0
    0.0000    0.0000    0.0000 N   0  0  0  0  0  0  0  0  0  0  0  0
    0.0000    0.0000    0.0000 C   0  0  0  0  0  0  0  0  0  0  0  0
    0.0000    0.0000    0.0000 C   0  0  0  0  0  0  0  0  0  0  0  0
    0.0000    0.0000    0.0000 N   0  0  0  0  0  0  0  0  0  0  0  0
    0.0000    0.0000    0.0000 C   0  0  0  0  0  0  0  0  0  0  0  0
    0.0000    0.0000    0.0000 C   0  0  0  0  0  0  0  0  0  0  0  0
    0.0000    0.0000    0.0000 C   0  0  0  0  0  0  0  0  0  0  0  0
    0.0000    0.0000    0.0000 C   0  0  0  0  0  0  0  0  0  0  0  0
    0.0000    0.0000    0.0000 C   0  0  0  0  0  0  0  0  0  0  0  0
    0.0000    0.0000    0.0000 N   0  0  0  0  0  0  0  0  0  0  0  0
    0.0000    0.0000    0.0000 C   0  0  0  0  0  0  0  0  0  0  0  0
    0.0000    0.0000    0.0000 C   0  0  0  0  0  0  0  0  0  0  0  0
    0.0000    0.0000    0.0000 C   0  0  0  0  0  0  0  0  0  0  0  0
    0.0000    0.0000    0.0000 N   0  0  0  0  0  0  0  0  0  0  0  0
    0.0000    0.0000    0.0000 C   0  0  0  0  0  0  0  0  0  0  0  0
    0.0000    0.0000    0.0000 N   0  0  0  0  0  0  0  0  0  0  0  0
    0.0000    0.0000    0.0000 C   0  0  0  0  0  0  0  0  0  0  0  0
    0.0000    0.0000    0.0000 N   0  0  0  0  0  0  0  0  0  0  0  0
    0.0000    0.0000    0.0000 C   0  0  0  0  0  0  0  0  0  0  0  0
  1  2  1  0
  2  3  1  0
  3  4  2  0
  4  5  1  0
  5  6  2  0
  6  7  1  0
  7  8  2  0
  8  9  1  0
  9 10  1  0
 10 11  2  0
 10 12  1  0
 12 13  1  0
 13 14  1  0
 13 15  1  0
 13 16  1  0
  5 17  1  0
 17 18  2  0
 18 19  1  0
 19 20  1  0
 20 21  1  0
 21 22  1  0
 22 23  1  0
 23 24  1  0
 24 25  1  0
 25 26  1  0
 26 27  1  0
 25 28  1  0
 28 29  1  0
 28 30  1  0
 19 31  1  0
 31 32  2  0
 32 33  1  0
 33 34  2  0
 34 35  1  0
 35 36  1  0
 35 37  2  0
  8  3  1  0
 37 17  1  0
 27 22  1  0
 37 31  1  0
M  END
>  <pIC50>  (770) 
5.03

>  <ChEMBL_ID>  (770) 
CHEMBL3823711

>  <document_journal>  (770) 
J. Med. Chem.

>  <bao_endpoint>  (770) 
BAO_0000190

>  <potential_duplicate>  (770) 
None

>  <uo_units>  (770) 
UO_0000065

>  <canonical_smiles>  (770) 
COc1cc(ccc1NC(=O)NC(C)(C)C)c2nn(CCN3CCC(CC3)N(C)C)c4ncnc(N)c24

>  <parent_molecule_chembl_id>  (770) 
CHEMBL3823711

>  <assay_type>  (770) 
B

>  <src_id>  (770) 
1

>  <ligand_efficiency>  (770) 
None

>  <standard_flag>  (770) 
True

>  <molecule_chembl_id>  (770) 
CHEMBL3823711

>  <target_organism>  (770) 
Homo sapiens

>  <standard_units>  (770) 
nM

>  <record_id>  (770) 
2786150

>  <document_chembl_id>  (770) 
CHEMBL3822371

>  <bao_format>  (770) 
None

>  <data_validity_description>  (770) 
None

>  <activity_id>  (770) 
16639975

>  <standard_type>  (770) 
IC50

>  <target_chembl_id>  (770) 
CHEMBL1862

>  <data_validity_comment>  (770) 
None

>  <published_value>  (770) 
9440

>  <document_year>  (770) 
2016

>  <target_pref_name>  (770) 
Tyrosine-protein kinase ABL

>  <assay_chembl_id>  (770) 
CHEMBL3826738

>  <standard_relation>  (770) 
=

>  <assay_description>  (770) 
Inhibition of human ABL using EAIYAAPFAKKK as substrate in presence of [gamma-33P]ATP

>  <published_relation>  (770) 
=

>  <standard_value>  (770) 
9440

>  <qudt_units>  (770) 
http://www.openphacts.org/units/Nanomolar

>  <target_tax_id>  (770) 
9606

>  <bao_label>  (770) 
None

>  <published_units>  (770) 
nM

>  <pchembl_value>  (770) 
5.03

>  <published_type>  (770) 
IC50

>  <activity_comment>  (770) 
None

$$$$

     RDKit          

 37 41  0  0  0  0  0  0  0  0999 V2000
    0.0000    0.0000    0.0000 C   0  0  0  0  0  0  0  0  0  0  0  0
    0.0000    0.0000    0.0000 O   0  0  0  0  0  0  0  0  0  0  0  0
    0.0000    0.0000    0.0000 C   0  0  0  0  0  0  0  0  0  0  0  0
    0.0000    0.0000    0.0000 C   0  0  0  0  0  0  0  0  0  0  0  0
    0.0000    0.0000    0.0000 C   0  0  0  0  0  0  0  0  0  0  0  0
    0.0000    0.0000    0.0000 C   0  0  0  0  0  0  0  0  0  0  0  0
    0.0000    0.0000    0.0000 C   0  0  0  0  0  0  0  0  0  0  0  0
    0.0000    0.0000    0.0000 C   0  0  0  0  0  0  0  0  0  0  0  0
    0.0000    0.0000    0.0000 N   0  0  0  0  0  0  0  0  0  0  0  0
    0.0000    0.0000    0.0000 C   0  0  0  0  0  0  0  0  0  0  0  0
    0.0000    0.0000    0.0000 C   0  0  0  0  0  0  0  0  0  0  0  0
    0.0000    0.0000    0.0000 C   0  0  0  0  0  0  0  0  0  0  0  0
    0.0000    0.0000    0.0000 C   0  0  0  0  0  0  0  0  0  0  0  0
    0.0000    0.0000    0.0000 C   0  0  0  0  0  0  0  0  0  0  0  0
    0.0000    0.0000    0.0000 C   0  0  0  0  0  0  0  0  0  0  0  0
    0.0000    0.0000    0.0000 C   0  0  0  0  0  0  0  0  0  0  0  0
    0.0000    0.0000    0.0000 C   0  0  0  0  0  0  0  0  0  0  0  0
    0.0000    0.0000    0.0000 N   0  0  0  0  0  0  0  0  0  0  0  0
    0.0000    0.0000    0.0000 N   0  0  0  0  0  0  0  0  0  0  0  0
    0.0000    0.0000    0.0000 C   0  0  0  0  0  0  0  0  0  0  0  0
    0.0000    0.0000    0.0000 C   0  0  0  0  0  0  0  0  0  0  0  0
    0.0000    0.0000    0.0000 N   0  0  0  0  0  0  0  0  0  0  0  0
    0.0000    0.0000    0.0000 C   0  0  0  0  0  0  0  0  0  0  0  0
    0.0000    0.0000    0.0000 C   0  0  0  0  0  0  0  0  0  0  0  0
    0.0000    0.0000    0.0000 C   0  0  0  0  0  0  0  0  0  0  0  0
    0.0000    0.0000    0.0000 C   0  0  0  0  0  0  0  0  0  0  0  0
    0.0000    0.0000    0.0000 C   0  0  0  0  0  0  0  0  0  0  0  0
    0.0000    0.0000    0.0000 N   0  0  0  0  0  0  0  0  0  0  0  0
    0.0000    0.0000    0.0000 C   0  0  0  0  0  0  0  0  0  0  0  0
    0.0000    0.0000    0.0000 C   0  0  0  0  0  0  0  0  0  0  0  0
    0.0000    0.0000    0.0000 C   0  0  0  0  0  0  0  0  0  0  0  0
    0.0000    0.0000    0.0000 N   0  0  0  0  0  0  0  0  0  0  0  0
    0.0000    0.0000    0.0000 C   0  0  0  0  0  0  0  0  0  0  0  0
    0.0000    0.0000    0.0000 N   0  0  0  0  0  0  0  0  0  0  0  0
    0.0000    0.0000    0.0000 C   0  0  0  0  0  0  0  0  0  0  0  0
    0.0000    0.0000    0.0000 N   0  0  0  0  0  0  0  0  0  0  0  0
    0.0000    0.0000    0.0000 C   0  0  0  0  0  0  0  0  0  0  0  0
  1  2  1  0
  2  3  1  0
  3  4  2  0
  4  5  1  0
  5  6  2  0
  6  7  1  0
  7  8  2  0
  8  9  1  0
  9 10  1  0
 10 11  1  0
 11 12  2  0
 12 13  1  0
 13 14  2  0
 14 15  1  0
 15 16  2  0
  5 17  1  0
 17 18  2  0
 18 19  1  0
 19 20  1  0
 20 21  1  0
 21 22  1  0
 22 23  1  0
 23 24  1  0
 24 25  1  0
 25 26  1  0
 26 27  1  0
 25 28  1  0
 28 29  1  0
 28 30  1  0
 19 31  1  0
 31 32  2  0
 32 33  1  0
 33 34  2  0
 34 35  1  0
 35 36  1  0
 35 37  2  0
  8  3  1  0
 16 11  1  0
 37 17  1  0
 27 22  1  0
 37 31  1  0
M  END
>  <pIC50>  (771) 
5.0

>  <ChEMBL_ID>  (771) 
CHEMBL3823543

>  <document_journal>  (771) 
J. Med. Chem.

>  <bao_endpoint>  (771) 
BAO_0000190

>  <potential_duplicate>  (771) 
None

>  <uo_units>  (771) 
UO_0000065

>  <canonical_smiles>  (771) 
COc1cc(ccc1NCc2ccccc2)c3nn(CCN4CCC(CC4)N(C)C)c5ncnc(N)c35

>  <parent_molecule_chembl_id>  (771) 
CHEMBL3823543

>  <assay_type>  (771) 
B

>  <src_id>  (771) 
1

>  <ligand_efficiency>  (771) 
None

>  <standard_flag>  (771) 
True

>  <molecule_chembl_id>  (771) 
CHEMBL3823543

>  <target_organism>  (771) 
Homo sapiens

>  <standard_units>  (771) 
nM

>  <record_id>  (771) 
2786154

>  <document_chembl_id>  (771) 
CHEMBL3822371

>  <bao_format>  (771) 
None

>  <data_validity_description>  (771) 
None

>  <activity_id>  (771) 
16639977

>  <standard_type>  (771) 
IC50

>  <target_chembl_id>  (771) 
CHEMBL1862

>  <data_validity_comment>  (771) 
None

>  <published_value>  (771) 
10000

>  <document_year>  (771) 
2016

>  <target_pref_name>  (771) 
Tyrosine-protein kinase ABL

>  <assay_chembl_id>  (771) 
CHEMBL3826738

>  <standard_relation>  (771) 
=

>  <assay_description>  (771) 
Inhibition of human ABL using EAIYAAPFAKKK as substrate in presence of [gamma-33P]ATP

>  <published_relation>  (771) 
=

>  <standard_value>  (771) 
10000

>  <qudt_units>  (771) 
http://www.openphacts.org/units/Nanomolar

>  <target_tax_id>  (771) 
9606

>  <bao_label>  (771) 
None

>  <published_units>  (771) 
nM

>  <pchembl_value>  (771) 
5

>  <published_type>  (771) 
IC50

>  <activity_comment>  (771) 
None

$$$$

     RDKit          

 35 38  0  0  0  0  0  0  0  0999 V2000
    0.0000    0.0000    0.0000 C   0  0  0  0  0  0  0  0  0  0  0  0
    0.0000    0.0000    0.0000 N   0  0  0  0  0  0  0  0  0  0  0  0
    0.0000    0.0000    0.0000 C   0  0  0  0  0  0  0  0  0  0  0  0
    0.0000    0.0000    0.0000 C   0  0  0  0  0  0  0  0  0  0  0  0
    0.0000    0.0000    0.0000 C   0  0  0  0  0  0  0  0  0  0  0  0
    0.0000    0.0000    0.0000 C   0  0  0  0  0  0  0  0  0  0  0  0
    0.0000    0.0000    0.0000 N   0  0  0  0  0  0  0  0  0  0  0  0
    0.0000    0.0000    0.0000 C   0  0  0  0  0  0  0  0  0  0  0  0
    0.0000    0.0000    0.0000 C   0  0  0  0  0  0  0  0  0  0  0  0
    0.0000    0.0000    0.0000 N   0  0  0  0  0  0  0  0  0  0  0  0
    0.0000    0.0000    0.0000 N   0  0  0  0  0  0  0  0  0  0  0  0
    0.0000    0.0000    0.0000 C   0  0  0  0  0  0  0  0  0  0  0  0
    0.0000    0.0000    0.0000 C   0  0  0  0  0  0  0  0  0  0  0  0
    0.0000    0.0000    0.0000 C   0  0  0  0  0  0  0  0  0  0  0  0
    0.0000    0.0000    0.0000 C   0  0  0  0  0  0  0  0  0  0  0  0
    0.0000    0.0000    0.0000 C   0  0  0  0  0  0  0  0  0  0  0  0
    0.0000    0.0000    0.0000 C   0  0  0  0  0  0  0  0  0  0  0  0
    0.0000    0.0000    0.0000 C   0  0  0  0  0  0  0  0  0  0  0  0
    0.0000    0.0000    0.0000 O   0  0  0  0  0  0  0  0  0  0  0  0
    0.0000    0.0000    0.0000 O   0  0  0  0  0  0  0  0  0  0  0  0
    0.0000    0.0000    0.0000 C   0  0  0  0  0  0  0  0  0  0  0  0
    0.0000    0.0000    0.0000 C   0  0  0  0  0  0  0  0  0  0  0  0
    0.0000    0.0000    0.0000 C   0  0  0  0  0  0  0  0  0  0  0  0
    0.0000    0.0000    0.0000 C   0  0  0  0  0  0  0  0  0  0  0  0
    0.0000    0.0000    0.0000 C   0  0  0  0  0  0  0  0  0  0  0  0
    0.0000    0.0000    0.0000 C   0  0  0  0  0  0  0  0  0  0  0  0
    0.0000    0.0000    0.0000 C   0  0  0  0  0  0  0  0  0  0  0  0
    0.0000    0.0000    0.0000 C   0  0  0  0  0  0  0  0  0  0  0  0
    0.0000    0.0000    0.0000 N   0  0  0  0  0  0  0  0  0  0  0  0
    0.0000    0.0000    0.0000 N   0  0  0  0  0  0  0  0  0  0  0  0
    0.0000    0.0000    0.0000 C   0  0  0  0  0  0  0  0  0  0  0  0
    0.0000    0.0000    0.0000 N   0  0  0  0  0  0  0  0  0  0  0  0
    0.0000    0.0000    0.0000 C   0  0  0  0  0  0  0  0  0  0  0  0
    0.0000    0.0000    0.0000 C   0  0  0  0  0  0  0  0  0  0  0  0
    0.0000    0.0000    0.0000 C   0  0  0  0  0  0  0  0  0  0  0  0
  1  2  1  0
  2  3  1  0
  2  4  1  0
  4  5  1  0
  5  6  1  0
  6  7  1  0
  7  8  1  0
  8  9  1  0
  9 10  1  0
 10 11  1  0
 11 12  2  0
 12 13  1  0
 13 14  2  0
 14 15  1  0
 15 16  2  0
 16 17  1  0
 17 18  1  0
 18 19  2  0
 18 20  1  0
 20 21  1  0
 21 22  1  0
 21 23  1  0
 21 24  1  0
 16 25  1  0
 25 26  2  0
 12 27  1  0
 27 28  2  0
 28 29  1  0
 28 30  1  0
 30 31  2  0
 31 32  1  0
 32 33  2  0
  7 34  1  0
 34 35  1  0
 35  4  1  0
 33 10  1  0
 26 13  1  0
 33 27  1  0
M  END
>  <pIC50>  (772) 
5.53

>  <ChEMBL_ID>  (772) 
CHEMBL3823620

>  <document_journal>  (772) 
J. Med. Chem.

>  <bao_endpoint>  (772) 
BAO_0000190

>  <potential_duplicate>  (772) 
None

>  <uo_units>  (772) 
UO_0000065

>  <canonical_smiles>  (772) 
CN(C)C1CCN(CCn2nc(c3ccc(CC(=O)OC(C)(C)C)cc3)c4c(N)ncnc24)CC1

>  <parent_molecule_chembl_id>  (772) 
CHEMBL3823620

>  <assay_type>  (772) 
B

>  <src_id>  (772) 
1

>  <ligand_efficiency>  (772) 
None

>  <standard_flag>  (772) 
True

>  <molecule_chembl_id>  (772) 
CHEMBL3823620

>  <target_organism>  (772) 
Homo sapiens

>  <standard_units>  (772) 
nM

>  <record_id>  (772) 
2786164

>  <document_chembl_id>  (772) 
CHEMBL3822371

>  <bao_format>  (772) 
None

>  <data_validity_description>  (772) 
None

>  <activity_id>  (772) 
16639980

>  <standard_type>  (772) 
IC50

>  <target_chembl_id>  (772) 
CHEMBL1862

>  <data_validity_comment>  (772) 
None

>  <published_value>  (772) 
2950

>  <document_year>  (772) 
2016

>  <target_pref_name>  (772) 
Tyrosine-protein kinase ABL

>  <assay_chembl_id>  (772) 
CHEMBL3826738

>  <standard_relation>  (772) 
=

>  <assay_description>  (772) 
Inhibition of human ABL using EAIYAAPFAKKK as substrate in presence of [gamma-33P]ATP

>  <published_relation>  (772) 
=

>  <standard_value>  (772) 
2950

>  <qudt_units>  (772) 
http://www.openphacts.org/units/Nanomolar

>  <target_tax_id>  (772) 
9606

>  <bao_label>  (772) 
None

>  <published_units>  (772) 
nM

>  <pchembl_value>  (772) 
5.53

>  <published_type>  (772) 
IC50

>  <activity_comment>  (772) 
None

$$$$

     RDKit          

 37 40  0  0  0  0  0  0  0  0999 V2000
    0.0000    0.0000    0.0000 C   0  0  0  0  0  0  0  0  0  0  0  0
    0.0000    0.0000    0.0000 O   0  0  0  0  0  0  0  0  0  0  0  0
    0.0000    0.0000    0.0000 C   0  0  0  0  0  0  0  0  0  0  0  0
    0.0000    0.0000    0.0000 C   0  0  0  0  0  0  0  0  0  0  0  0
    0.0000    0.0000    0.0000 C   0  0  0  0  0  0  0  0  0  0  0  0
    0.0000    0.0000    0.0000 C   0  0  0  0  0  0  0  0  0  0  0  0
    0.0000    0.0000    0.0000 C   0  0  0  0  0  0  0  0  0  0  0  0
    0.0000    0.0000    0.0000 C   0  0  0  0  0  0  0  0  0  0  0  0
    0.0000    0.0000    0.0000 C   0  0  0  0  0  0  0  0  0  0  0  0
    0.0000    0.0000    0.0000 C   0  0  0  0  0  0  0  0  0  0  0  0
    0.0000    0.0000    0.0000 O   0  0  0  0  0  0  0  0  0  0  0  0
    0.0000    0.0000    0.0000 O   0  0  0  0  0  0  0  0  0  0  0  0
    0.0000    0.0000    0.0000 C   0  0  0  0  0  0  0  0  0  0  0  0
    0.0000    0.0000    0.0000 C   0  0  0  0  0  0  0  0  0  0  0  0
    0.0000    0.0000    0.0000 C   0  0  0  0  0  0  0  0  0  0  0  0
    0.0000    0.0000    0.0000 C   0  0  0  0  0  0  0  0  0  0  0  0
    0.0000    0.0000    0.0000 C   0  0  0  0  0  0  0  0  0  0  0  0
    0.0000    0.0000    0.0000 N   0  0  0  0  0  0  0  0  0  0  0  0
    0.0000    0.0000    0.0000 N   0  0  0  0  0  0  0  0  0  0  0  0
    0.0000    0.0000    0.0000 C   0  0  0  0  0  0  0  0  0  0  0  0
    0.0000    0.0000    0.0000 C   0  0  0  0  0  0  0  0  0  0  0  0
    0.0000    0.0000    0.0000 N   0  0  0  0  0  0  0  0  0  0  0  0
    0.0000    0.0000    0.0000 C   0  0  0  0  0  0  0  0  0  0  0  0
    0.0000    0.0000    0.0000 C   0  0  0  0  0  0  0  0  0  0  0  0
    0.0000    0.0000    0.0000 C   0  0  0  0  0  0  0  0  0  0  0  0
    0.0000    0.0000    0.0000 C   0  0  0  0  0  0  0  0  0  0  0  0
    0.0000    0.0000    0.0000 C   0  0  0  0  0  0  0  0  0  0  0  0
    0.0000    0.0000    0.0000 N   0  0  0  0  0  0  0  0  0  0  0  0
    0.0000    0.0000    0.0000 C   0  0  0  0  0  0  0  0  0  0  0  0
    0.0000    0.0000    0.0000 C   0  0  0  0  0  0  0  0  0  0  0  0
    0.0000    0.0000    0.0000 C   0  0  0  0  0  0  0  0  0  0  0  0
    0.0000    0.0000    0.0000 N   0  0  0  0  0  0  0  0  0  0  0  0
    0.0000    0.0000    0.0000 C   0  0  0  0  0  0  0  0  0  0  0  0
    0.0000    0.0000    0.0000 N   0  0  0  0  0  0  0  0  0  0  0  0
    0.0000    0.0000    0.0000 C   0  0  0  0  0  0  0  0  0  0  0  0
    0.0000    0.0000    0.0000 N   0  0  0  0  0  0  0  0  0  0  0  0
    0.0000    0.0000    0.0000 C   0  0  0  0  0  0  0  0  0  0  0  0
  1  2  1  0
  2  3  1  0
  3  4  2  0
  4  5  1  0
  5  6  2  0
  6  7  1  0
  7  8  2  0
  8  9  1  0
  9 10  1  0
 10 11  2  0
 10 12  1  0
 12 13  1  0
 13 14  1  0
 13 15  1  0
 13 16  1  0
  5 17  1  0
 17 18  2  0
 18 19  1  0
 19 20  1  0
 20 21  1  0
 21 22  1  0
 22 23  1  0
 23 24  1  0
 24 25  1  0
 25 26  1  0
 26 27  1  0
 25 28  1  0
 28 29  1  0
 28 30  1  0
 19 31  1  0
 31 32  2  0
 32 33  1  0
 33 34  2  0
 34 35  1  0
 35 36  1  0
 35 37  2  0
  8  3  1  0
 37 17  1  0
 27 22  1  0
 37 31  1  0
M  END
>  <pIC50>  (773) 
6.43

>  <ChEMBL_ID>  (773) 
CHEMBL3824116

>  <document_journal>  (773) 
J. Med. Chem.

>  <bao_endpoint>  (773) 
BAO_0000190

>  <potential_duplicate>  (773) 
None

>  <uo_units>  (773) 
UO_0000065

>  <canonical_smiles>  (773) 
COc1cc(ccc1CC(=O)OC(C)(C)C)c2nn(CCN3CCC(CC3)N(C)C)c4ncnc(N)c24

>  <parent_molecule_chembl_id>  (773) 
CHEMBL3824116

>  <assay_type>  (773) 
B

>  <src_id>  (773) 
1

>  <ligand_efficiency>  (773) 
None

>  <standard_flag>  (773) 
True

>  <molecule_chembl_id>  (773) 
CHEMBL3824116

>  <target_organism>  (773) 
Homo sapiens

>  <standard_units>  (773) 
nM

>  <record_id>  (773) 
2786165

>  <document_chembl_id>  (773) 
CHEMBL3822371

>  <bao_format>  (773) 
None

>  <data_validity_description>  (773) 
None

>  <activity_id>  (773) 
16639981

>  <standard_type>  (773) 
IC50

>  <target_chembl_id>  (773) 
CHEMBL1862

>  <data_validity_comment>  (773) 
None

>  <published_value>  (773) 
370

>  <document_year>  (773) 
2016

>  <target_pref_name>  (773) 
Tyrosine-protein kinase ABL

>  <assay_chembl_id>  (773) 
CHEMBL3826738

>  <standard_relation>  (773) 
=

>  <assay_description>  (773) 
Inhibition of human ABL using EAIYAAPFAKKK as substrate in presence of [gamma-33P]ATP

>  <published_relation>  (773) 
=

>  <standard_value>  (773) 
370

>  <qudt_units>  (773) 
http://www.openphacts.org/units/Nanomolar

>  <target_tax_id>  (773) 
9606

>  <bao_label>  (773) 
None

>  <published_units>  (773) 
nM

>  <pchembl_value>  (773) 
6.43

>  <published_type>  (773) 
IC50

>  <activity_comment>  (773) 
None

$$$$
